
 OpenBabel10032415253D

 27 29  0  0  0  0  0  0  0  0999 V2000
   14.9930  -19.1010   -0.9460 C   0  0  0  0  0  0  0  0  0  0  0  0
   13.8500  -18.6300   -1.5850 C   0  0  0  0  0  3  0  0  0  0  0  0
   12.9180  -19.5520   -2.0660 C   0  0  0  0  0  0  0  0  0  0  0  0
   13.1320  -20.9350   -1.9180 C   0  0  0  0  0  0  0  0  0  0  0  0
   14.2840  -21.3920   -1.2740 C   0  0  0  0  0  0  0  0  0  0  0  0
   15.2140  -20.4700   -0.7810 C   0  0  0  0  0  3  0  0  0  0  0  0
   12.1790  -21.9380   -2.4330 C   0  0  0  0  0  0  0  0  0  0  0  0
   12.5580  -23.3690   -2.2810 C   0  0  0  0  0  0  0  0  0  0  0  0
   13.7150  -23.6720   -1.6550 C   0  0  0  0  0  0  0  0  0  0  0  0
   14.5720  -22.7310   -1.0990 O   0  0  0  0  0  0  0  0  0  0  0  0
   11.1220  -21.6350   -2.9790 O   0  0  0  0  0  0  0  0  0  0  0  0
   14.1730  -25.0780   -1.5370 C   0  0  0  0  0  0  0  0  0  0  0  0
   14.4500  -25.8710   -2.6630 C   0  0  0  0  0  3  0  0  0  0  0  0
   14.9660  -27.1740   -2.5180 C   0  0  0  0  0  3  0  0  0  0  0  0
   15.2130  -27.6790   -1.2430 C   0  0  0  0  0  0  0  0  0  0  0  0
   14.9430  -26.8970   -0.1260 C   0  0  0  0  0  0  0  0  0  0  0  0
   14.4110  -25.6200   -0.2630 C   0  0  0  0  0  3  0  0  0  0  0  0
   15.7240  -28.9290   -1.0370 O   0  0  0  0  0  0  0  0  0  0  0  0
   15.8370  -29.3700   -1.8970 H   0  0  0  0  0  0  0  0  0  0  0  0
   15.2090  -27.3520    1.1340 O   0  0  0  0  0  0  0  0  0  0  0  0
   15.5710  -28.2520    1.0220 H   0  0  0  0  0  0  0  0  0  0  0  0
   15.9440  -18.2470   -0.4660 O   0  0  0  0  0  0  0  0  0  0  0  0
   15.6930  -17.3290   -0.6620 H   0  0  0  0  0  0  0  0  0  0  0  0
   11.7950  -19.0910   -2.6940 O   0  0  0  0  0  0  0  0  0  0  0  0
   11.7660  -18.1250   -2.7340 H   0  0  0  0  0  0  0  0  0  0  0  0
   11.6780  -24.2970   -2.8140 O   0  0  0  0  0  0  0  0  0  0  0  0
   11.9900  -25.1960   -2.6340 H   0  0  0  0  0  0  0  0  0  0  0  0
  1  6  1  0  0  0  0
  1 22  1  0  0  0  0
  2  1  2  0  0  0  0
  3  4  2  0  0  0  0
  3  2  1  0  0  0  0
  4  5  1  0  0  0  0
  5 10  1  0  0  0  0
  5  6  2  0  0  0  0
  7  8  1  0  0  0  0
  7  4  1  0  0  0  0
  8  9  2  0  0  0  0
  9 12  1  0  0  0  0
  9 10  1  0  0  0  0
 11  7  2  0  0  0  0
 12 17  1  0  0  0  0
 13 14  1  0  0  0  0
 13 12  2  0  0  0  0
 14 15  2  0  0  0  0
 15 18  1  0  0  0  0
 15 16  1  0  0  0  0
 16 20  1  0  0  0  0
 17 16  2  0  0  0  0
 19 18  1  0  0  0  0
 21 20  1  0  0  0  0
 23 22  1  0  0  0  0
 24  3  1  0  0  0  0
 25 24  1  0  0  0  0
 26 27  1  0  0  0  0
 26  8  1  0  0  0  0
M  END
>  <minimizedAffinity>
-8.27828598

$$$$
