REMARK  Name = MOL000098
REMARK  6 active torsions:
REMARK  status: ('A' for Active; 'I' for Inactive)
REMARK    1  A    between atoms: C_1  and  O_17
REMARK    2  A    between atoms: C_3  and  O_18
REMARK    3  A    between atoms: C_8  and  O_20
REMARK    4  A    between atoms: C_9  and  C_11
REMARK    5  A    between atoms: C_14  and  O_19
REMARK    6  A    between atoms: C_15  and  O_21
REMARK                            x       y       z     vdW  Elec       q    Type
REMARK                         _______ _______ _______ _____ _____    ______ ____
ROOT
ATOM      1  C   UNL     1      -2.651   0.360  -0.007  0.00  0.00    +0.078 A 
ATOM      2  C   UNL     1      -2.289  -0.984  -0.019  0.00  0.00    +0.066 A 
ATOM      3  C   UNL     1      -0.933  -1.317   0.004  0.00  0.00    +0.088 A 
ATOM      4  C   UNL     1       0.054  -0.314   0.029  0.00  0.00    +0.085 A 
ATOM      5  C   UNL     1      -0.325   1.030   0.041  0.00  0.00    +0.099 A 
ATOM      6  C   UNL     1      -1.684   1.366   0.030  0.00  0.00    +0.066 A 
ATOM      7  C   UNL     1       1.496  -0.629   0.032  0.00  0.00    +0.223 A 
ATOM      8  C   UNL     1       2.438   0.522  -0.019  0.00  0.00    +0.152 A 
ATOM      9  C   UNL     1       1.935   1.774  -0.025  0.00  0.00    +0.124 A 
ATOM     10  O   UNL     1       0.580   2.072   0.054  0.00  0.00    -0.305 OA
ATOM     11  O   UNL     1       1.928  -1.778   0.060  0.00  0.00    -0.284 OA
ENDROOT
BRANCH   9  12
ATOM     12  C   UNL     1       2.826   2.954  -0.143  0.00  0.00    +0.011 A 
ATOM     13  C   UNL     1       2.912   3.929   0.865  0.00  0.00    +0.013 A 
ATOM     14  C   UNL     1       3.831   4.992   0.763  0.00  0.00    +0.036 A 
ATOM     15  C   UNL     1       4.671   5.073  -0.345  0.00  0.00    +0.102 A 
ATOM     16  C   UNL     1       4.591   4.109  -1.344  0.00  0.00    +0.103 A 
ATOM     17  C   UNL     1       3.670   3.072  -1.260  0.00  0.00    +0.045 A 
BRANCH  15  18
ATOM     18  O   UNL     1       5.591   6.072  -0.496  0.00  0.00    -0.357 OA
ATOM     19  H   UNL     1       5.518   6.685   0.256  0.00  0.00    +0.217 HD
ENDBRANCH  15  18
BRANCH  16  20
ATOM     20  O   UNL     1       5.426   4.142  -2.424  0.00  0.00    -0.357 OA
ATOM     21  H   UNL     1       5.989   4.931  -2.302  0.00  0.00    +0.217 HD
ENDBRANCH  16  20
ENDBRANCH   9  12
BRANCH   1  22
ATOM     22  O   UNL     1      -3.960   0.745  -0.039  0.00  0.00    -0.360 OA
ATOM     23  H   UNL     1      -4.534  -0.038  -0.089  0.00  0.00    +0.217 HD
ENDBRANCH   1  22
BRANCH   3  24
ATOM     24  O   UNL     1      -0.575  -2.636  -0.008  0.00  0.00    -0.359 OA
ATOM     25  H   UNL     1      -1.343  -3.225  -0.027  0.00  0.00    +0.217 HD
ENDBRANCH   3  24
BRANCH   8  26
ATOM     26  O   UNL     1       3.787   0.209  -0.067  0.00  0.00    -0.354 OA
ATOM     27  H   UNL     1       4.319   1.019  -0.060  0.00  0.00    +0.218 HD
ENDBRANCH   8  26
TORSDOF 6
