
 OpenBabel10112400443D

 27 29  0  0  0  0  0  0  0  0999 V2000
  -25.9890   34.8120   10.9350 C   0  0  0  0  0  0  0  0  0  0  0  0
  -25.3200   35.2960    9.7050 C   0  0  0  0  0  3  0  0  0  0  0  0
  -25.8340   34.9510    8.4220 C   0  0  0  0  0  0  0  0  0  0  0  0
  -27.0480   34.1010    8.3350 C   0  0  0  0  0  0  0  0  0  0  0  0
  -27.6840   33.6390    9.4880 C   0  0  0  0  0  0  0  0  0  0  0  0
  -27.1500   33.9970   10.8230 C   0  0  0  0  0  3  0  0  0  0  0  0
  -27.6600   33.6890    7.0220 C   0  0  0  0  0  0  0  0  0  0  0  0
  -28.8730   32.8510    7.0570 C   0  0  0  0  0  0  0  0  0  0  0  0
  -29.3810   32.4610    8.2370 C   0  0  0  0  0  0  0  0  0  0  0  0
  -28.8260   32.8370    9.4030 O   0  0  0  0  0  0  0  0  0  0  0  0
  -27.1870   34.0260    5.9480 O   0  0  0  0  0  0  0  0  0  0  0  0
  -30.6150   31.5880    8.3350 C   0  0  0  0  0  0  0  0  0  0  0  0
  -30.6940   30.3950    7.4550 C   0  0  0  0  0  3  0  0  0  0  0  0
  -31.8130   29.5430    7.5020 C   0  0  0  0  0  3  0  0  0  0  0  0
  -32.9290   29.8240    8.4330 C   0  0  0  0  0  0  0  0  0  0  0  0
  -32.8740   30.9670    9.2780 C   0  0  0  0  0  0  0  0  0  0  0  0
  -31.6970   31.8710    9.2190 C   0  0  0  0  0  3  0  0  0  0  0  0
  -34.0260   28.9600    8.4700 O   0  0  0  0  0  0  0  0  0  0  0  0
  -34.0500   28.2110    7.9080 H   0  0  0  0  0  0  0  0  0  0  0  0
  -33.9360   31.2180   10.1530 O   0  0  0  0  0  0  0  0  0  0  0  0
  -34.6700   30.6360   10.1770 H   0  0  0  0  0  0  0  0  0  0  0  0
  -25.4640   35.1650   12.1800 O   0  0  0  0  0  0  0  0  0  0  0  0
  -24.6980   35.7020   12.2310 H   0  0  0  0  0  0  0  0  0  0  0  0
  -25.2170   35.3970    7.2500 O   0  0  0  0  0  0  0  0  0  0  0  0
  -24.4510   35.9340    7.3010 H   0  0  0  0  0  0  0  0  0  0  0  0
  -29.4740   32.4910    5.9140 O   0  0  0  0  0  0  0  0  0  0  0  0
  -29.1170   32.7630    5.0900 H   0  0  0  0  0  0  0  0  0  0  0  0
  1 22  1  0  0  0  0
  2  1  2  0  0  0  0
  3  2  1  0  0  0  0
  4  3  2  0  0  0  0
  4  5  1  0  0  0  0
  5  6  2  0  0  0  0
  6  1  1  0  0  0  0
  7  8  1  0  0  0  0
  7  4  1  0  0  0  0
  8  9  2  0  0  0  0
  9 12  1  0  0  0  0
  9 10  1  0  0  0  0
 10  5  1  0  0  0  0
 11  7  2  0  0  0  0
 12 17  1  0  0  0  0
 13 14  1  0  0  0  0
 13 12  2  0  0  0  0
 14 15  2  0  0  0  0
 15 18  1  0  0  0  0
 15 16  1  0  0  0  0
 16 20  1  0  0  0  0
 17 16  2  0  0  0  0
 19 18  1  0  0  0  0
 20 21  1  0  0  0  0
 22 23  1  0  0  0  0
 24 25  1  0  0  0  0
 24  3  1  0  0  0  0
 26  8  1  0  0  0  0
 27 26  1  0  0  0  0
M  END
>  <minimizedAffinity>
-9.33739758

$$$$

 OpenBabel10112400443D

 27 29  0  0  0  0  0  0  0  0999 V2000
  -31.0160   32.4910    4.7610 C   0  0  0  0  0  0  0  0  0  0  0  0
  -31.6860   31.2880    5.3080 C   0  0  0  0  0  3  0  0  0  0  0  0
  -31.3720   30.8220    6.6180 C   0  0  0  0  0  0  0  0  0  0  0  0
  -30.3670   31.5580    7.4250 C   0  0  0  0  0  0  0  0  0  0  0  0
  -29.7310   32.6910    6.9170 C   0  0  0  0  0  0  0  0  0  0  0  0
  -30.0550   33.1760    5.5550 C   0  0  0  0  0  3  0  0  0  0  0  0
  -29.9770   31.1380    8.8180 C   0  0  0  0  0  0  0  0  0  0  0  0
  -28.9740   31.9510    9.5290 C   0  0  0  0  0  0  0  0  0  0  0  0
  -28.4240   33.0150    8.9220 C   0  0  0  0  0  0  0  0  0  0  0  0
  -28.7830   33.3810    7.6790 O   0  0  0  0  0  0  0  0  0  0  0  0
  -30.4620   30.1600    9.3630 O   0  0  0  0  0  0  0  0  0  0  0  0
  -27.3790   33.8780    9.5980 C   0  0  0  0  0  0  0  0  0  0  0  0
  -26.3620   34.5370    8.7410 C   0  0  0  0  0  3  0  0  0  0  0  0
  -25.3670   35.3540    9.3080 C   0  0  0  0  0  3  0  0  0  0  0  0
  -25.3210   35.5710   10.7720 C   0  0  0  0  0  0  0  0  0  0  0  0
  -26.2830   34.9420   11.6100 C   0  0  0  0  0  0  0  0  0  0  0  0
  -27.3250   34.0700   11.0100 C   0  0  0  0  0  3  0  0  0  0  0  0
  -24.3310   36.3930   11.3130 O   0  0  0  0  0  0  0  0  0  0  0  0
  -23.7020   36.8020   10.7500 H   0  0  0  0  0  0  0  0  0  0  0  0
  -26.2270   35.1570   12.9900 O   0  0  0  0  0  0  0  0  0  0  0  0
  -25.5630   35.7100   13.3520 H   0  0  0  0  0  0  0  0  0  0  0  0
  -31.3410   32.9260    3.4740 O   0  0  0  0  0  0  0  0  0  0  0  0
  -31.9770   32.4590    2.9690 H   0  0  0  0  0  0  0  0  0  0  0  0
  -31.9930   29.6900    7.1520 O   0  0  0  0  0  0  0  0  0  0  0  0
  -32.6280   29.2230    6.6460 H   0  0  0  0  0  0  0  0  0  0  0  0
  -28.6230   31.6370   10.7850 O   0  0  0  0  0  0  0  0  0  0  0  0
  -29.0060   30.8940   11.2070 H   0  0  0  0  0  0  0  0  0  0  0  0
  1  2  2  0  0  0  0
  1  6  1  0  0  0  0
  2  3  1  0  0  0  0
  3 24  1  0  0  0  0
  3  4  2  0  0  0  0
  4  7  1  0  0  0  0
  5  4  1  0  0  0  0
  5 10  1  0  0  0  0
  6  5  2  0  0  0  0
  7 11  2  0  0  0  0
  7  8  1  0  0  0  0
  8 26  1  0  0  0  0
  9  8  2  0  0  0  0
  9 12  1  0  0  0  0
 10  9  1  0  0  0  0
 12 17  1  0  0  0  0
 13 14  1  0  0  0  0
 13 12  2  0  0  0  0
 14 15  2  0  0  0  0
 15 18  1  0  0  0  0
 15 16  1  0  0  0  0
 16 20  1  0  0  0  0
 17 16  2  0  0  0  0
 19 18  1  0  0  0  0
 20 21  1  0  0  0  0
 22  1  1  0  0  0  0
 23 22  1  0  0  0  0
 25 24  1  0  0  0  0
 26 27  1  0  0  0  0
M  END
>  <minimizedAffinity>
-9.20056438

$$$$

 OpenBabel10112400443D

 27 29  0  0  0  0  0  0  0  0999 V2000
  -32.9540   28.9910    7.9200 C   0  0  0  0  0  0  0  0  0  0  0  0
  -33.2750   28.8790    9.3620 C   0  0  0  0  0  3  0  0  0  0  0  0
  -32.5550   29.6500   10.3220 C   0  0  0  0  0  0  0  0  0  0  0  0
  -31.4830   30.5640    9.8560 C   0  0  0  0  0  0  0  0  0  0  0  0
  -31.1740   30.6750    8.5000 C   0  0  0  0  0  0  0  0  0  0  0  0
  -31.9210   29.8740    7.5020 C   0  0  0  0  0  3  0  0  0  0  0  0
  -30.6740   31.4160   10.7990 C   0  0  0  0  0  0  0  0  0  0  0  0
  -29.6410   32.2950   10.2220 C   0  0  0  0  0  0  0  0  0  0  0  0
  -29.4320   32.2990    8.8970 C   0  0  0  0  0  0  0  0  0  0  0  0
  -30.1620   31.5360    8.0640 O   0  0  0  0  0  0  0  0  0  0  0  0
  -30.8500   31.3980   12.0070 O   0  0  0  0  0  0  0  0  0  0  0  0
  -28.3750   33.1700    8.2490 C   0  0  0  0  0  0  0  0  0  0  0  0
  -28.1590   33.0310    6.7870 C   0  0  0  0  0  3  0  0  0  0  0  0
  -27.1940   33.8140    6.1270 C   0  0  0  0  0  3  0  0  0  0  0  0
  -26.3790   34.7920    6.8830 C   0  0  0  0  0  0  0  0  0  0  0  0
  -26.5680   34.9340    8.2860 C   0  0  0  0  0  0  0  0  0  0  0  0
  -27.5790   34.0980    8.9820 C   0  0  0  0  0  3  0  0  0  0  0  0
  -25.4340   35.5660    6.2060 O   0  0  0  0  0  0  0  0  0  0  0  0
  -25.3200   35.4630    5.2820 H   0  0  0  0  0  0  0  0  0  0  0  0
  -25.7910   35.8640    8.9860 O   0  0  0  0  0  0  0  0  0  0  0  0
  -25.1580   36.3830    8.5290 H   0  0  0  0  0  0  0  0  0  0  0  0
  -33.6750   28.2240    7.0010 O   0  0  0  0  0  0  0  0  0  0  0  0
  -34.3520   27.6490    7.3000 H   0  0  0  0  0  0  0  0  0  0  0  0
  -32.8420   29.5580   11.6860 O   0  0  0  0  0  0  0  0  0  0  0  0
  -33.5180   28.9830   11.9840 H   0  0  0  0  0  0  0  0  0  0  0  0
  -28.9220   33.0990   11.0190 O   0  0  0  0  0  0  0  0  0  0  0  0
  -29.0680   33.0940   11.9450 H   0  0  0  0  0  0  0  0  0  0  0  0
  1  2  1  0  0  0  0
  2  3  2  0  0  0  0
  3 24  1  0  0  0  0
  4  3  1  0  0  0  0
  4  7  1  0  0  0  0
  5  4  2  0  0  0  0
  6  1  2  0  0  0  0
  6  5  1  0  0  0  0
  7 11  2  0  0  0  0
  8  7  1  0  0  0  0
  8 26  1  0  0  0  0
  9  8  2  0  0  0  0
 10  5  1  0  0  0  0
 10  9  1  0  0  0  0
 12  9  1  0  0  0  0
 12 17  1  0  0  0  0
 13 12  2  0  0  0  0
 14 13  1  0  0  0  0
 14 15  2  0  0  0  0
 15 16  1  0  0  0  0
 16 17  2  0  0  0  0
 16 20  1  0  0  0  0
 18 15  1  0  0  0  0
 19 18  1  0  0  0  0
 21 20  1  0  0  0  0
 22 23  1  0  0  0  0
 22  1  1  0  0  0  0
 24 25  1  0  0  0  0
 26 27  1  0  0  0  0
M  END
>  <minimizedAffinity>
-9.11630726

$$$$

 OpenBabel10112400443D

 27 29  0  0  0  0  0  0  0  0999 V2000
  -33.5520   30.3300    9.9300 C   0  0  0  0  0  0  0  0  0  0  0  0
  -33.6060   29.8750   11.3390 C   0  0  0  0  0  3  0  0  0  0  0  0
  -32.5910   30.2640   12.2610 C   0  0  0  0  0  0  0  0  0  0  0  0
  -31.4820   31.1300   11.7900 C   0  0  0  0  0  0  0  0  0  0  0  0
  -31.4230   31.5620   10.4650 C   0  0  0  0  0  0  0  0  0  0  0  0
  -32.4760   31.1580    9.5060 C   0  0  0  0  0  3  0  0  0  0  0  0
  -30.3690   31.5900   12.6960 C   0  0  0  0  0  0  0  0  0  0  0  0
  -29.3240   32.4580   12.1210 C   0  0  0  0  0  0  0  0  0  0  0  0
  -29.3750   32.7920   10.8220 C   0  0  0  0  0  0  0  0  0  0  0  0
  -30.3750   32.3760   10.0240 O   0  0  0  0  0  0  0  0  0  0  0  0
  -30.3120   31.2710   13.8720 O   0  0  0  0  0  0  0  0  0  0  0  0
  -28.3220   33.6670   10.1730 C   0  0  0  0  0  0  0  0  0  0  0  0
  -27.3050   33.0110    9.3150 C   0  0  0  0  0  3  0  0  0  0  0  0
  -26.3040   33.7690    8.6810 C   0  0  0  0  0  3  0  0  0  0  0  0
  -26.2510   35.2380    8.8610 C   0  0  0  0  0  0  0  0  0  0  0  0
  -27.2140   35.8840    9.6860 C   0  0  0  0  0  0  0  0  0  0  0  0
  -28.2630   35.0790   10.3620 C   0  0  0  0  0  3  0  0  0  0  0  0
  -25.2550   35.9730    8.2160 O   0  0  0  0  0  0  0  0  0  0  0  0
  -24.6260   35.5360    7.6750 H   0  0  0  0  0  0  0  0  0  0  0  0
  -27.1520   37.2720    9.8440 O   0  0  0  0  0  0  0  0  0  0  0  0
  -26.4830   37.7640    9.4090 H   0  0  0  0  0  0  0  0  0  0  0  0
  -34.5600   29.9340    9.0470 O   0  0  0  0  0  0  0  0  0  0  0  0
  -35.2590   29.3870    9.3490 H   0  0  0  0  0  0  0  0  0  0  0  0
  -32.6250   29.8460   13.5940 O   0  0  0  0  0  0  0  0  0  0  0  0
  -33.3230   29.2990   13.8950 H   0  0  0  0  0  0  0  0  0  0  0  0
  -28.3350   32.9220   12.8970 O   0  0  0  0  0  0  0  0  0  0  0  0
  -28.3000   32.6860   13.8040 H   0  0  0  0  0  0  0  0  0  0  0  0
  1  2  1  0  0  0  0
  2  3  2  0  0  0  0
  3 24  1  0  0  0  0
  4  3  1  0  0  0  0
  4  7  1  0  0  0  0
  5  4  2  0  0  0  0
  6  1  2  0  0  0  0
  6  5  1  0  0  0  0
  7 11  2  0  0  0  0
  8  7  1  0  0  0  0
  8 26  1  0  0  0  0
  9  8  2  0  0  0  0
 10  5  1  0  0  0  0
 10  9  1  0  0  0  0
 12 17  1  0  0  0  0
 12  9  1  0  0  0  0
 13 12  2  0  0  0  0
 14 15  2  0  0  0  0
 14 13  1  0  0  0  0
 15 16  1  0  0  0  0
 16 20  1  0  0  0  0
 16 17  2  0  0  0  0
 18 15  1  0  0  0  0
 19 18  1  0  0  0  0
 21 20  1  0  0  0  0
 22 23  1  0  0  0  0
 22  1  1  0  0  0  0
 24 25  1  0  0  0  0
 26 27  1  0  0  0  0
M  END
>  <minimizedAffinity>
-9.11520958

$$$$

 OpenBabel10112400443D

 27 29  0  0  0  0  0  0  0  0999 V2000
  -26.9910   34.1060    6.3110 C   0  0  0  0  0  0  0  0  0  0  0  0
  -26.3290   34.5140    7.5720 C   0  0  0  0  0  3  0  0  0  0  0  0
  -26.7820   34.0010    8.8220 C   0  0  0  0  0  0  0  0  0  0  0  0
  -27.9250   33.0540    8.8420 C   0  0  0  0  0  0  0  0  0  0  0  0
  -28.5550   32.6650    7.6590 C   0  0  0  0  0  0  0  0  0  0  0  0
  -28.0850   33.1980    6.3600 C   0  0  0  0  0  3  0  0  0  0  0  0
  -28.4680   32.4620   10.1160 C   0  0  0  0  0  0  0  0  0  0  0  0
  -29.6010   31.5240   10.0140 C   0  0  0  0  0  0  0  0  0  0  0  0
  -30.1280   31.2410    8.8130 C   0  0  0  0  0  0  0  0  0  0  0  0
  -29.6320   31.7750    7.6820 O   0  0  0  0  0  0  0  0  0  0  0  0
  -28.0030   32.7330   11.2120 O   0  0  0  0  0  0  0  0  0  0  0  0
  -31.3010   30.2960    8.6480 C   0  0  0  0  0  0  0  0  0  0  0  0
  -31.0580   28.9990    7.9700 C   0  0  0  0  0  3  0  0  0  0  0  0
  -32.1060   28.0770    7.7900 C   0  0  0  0  0  3  0  0  0  0  0  0
  -33.4690   28.3890    8.2760 C   0  0  0  0  0  0  0  0  0  0  0  0
  -33.7220   29.6320    8.9220 C   0  0  0  0  0  0  0  0  0  0  0  0
  -32.6160   30.6070    9.1010 C   0  0  0  0  0  3  0  0  0  0  0  0
  -34.4920   27.4560    8.0950 O   0  0  0  0  0  0  0  0  0  0  0  0
  -34.3130   26.6410    7.6680 H   0  0  0  0  0  0  0  0  0  0  0  0
  -35.0140   29.9110    9.3770 O   0  0  0  0  0  0  0  0  0  0  0  0
  -35.6990   29.2830    9.2560 H   0  0  0  0  0  0  0  0  0  0  0  0
  -26.5260   34.6240    5.1000 O   0  0  0  0  0  0  0  0  0  0  0  0
  -25.8040   35.2210    5.0920 H   0  0  0  0  0  0  0  0  0  0  0  0
  -26.1710   34.3730   10.0220 O   0  0  0  0  0  0  0  0  0  0  0  0
  -25.4500   34.9710   10.0140 H   0  0  0  0  0  0  0  0  0  0  0  0
  -30.0940   30.9430   11.1180 O   0  0  0  0  0  0  0  0  0  0  0  0
  -29.7260   31.1420   11.9570 H   0  0  0  0  0  0  0  0  0  0  0  0
  1  6  2  0  0  0  0
  1  2  1  0  0  0  0
  2  3  2  0  0  0  0
  3  4  1  0  0  0  0
  3 24  1  0  0  0  0
  4  7  1  0  0  0  0
  5 10  1  0  0  0  0
  5  4  2  0  0  0  0
  6  5  1  0  0  0  0
  7 11  2  0  0  0  0
  8  7  1  0  0  0  0
  8 26  1  0  0  0  0
  9  8  2  0  0  0  0
 10  9  1  0  0  0  0
 12  9  1  0  0  0  0
 12 17  1  0  0  0  0
 13 12  2  0  0  0  0
 14 13  1  0  0  0  0
 14 15  2  0  0  0  0
 15 16  1  0  0  0  0
 16 17  2  0  0  0  0
 16 20  1  0  0  0  0
 18 15  1  0  0  0  0
 19 18  1  0  0  0  0
 21 20  1  0  0  0  0
 22  1  1  0  0  0  0
 23 22  1  0  0  0  0
 25 24  1  0  0  0  0
 26 27  1  0  0  0  0
M  END
>  <minimizedAffinity>
-9.04473591

$$$$

 OpenBabel10112400443D

 27 29  0  0  0  0  0  0  0  0999 V2000
  -32.8020   30.7510   11.8340 C   0  0  0  0  0  0  0  0  0  0  0  0
  -33.6450   29.9850   10.8870 C   0  0  0  0  0  3  0  0  0  0  0  0
  -33.3160   29.9450    9.5010 C   0  0  0  0  0  0  0  0  0  0  0  0
  -32.1190   30.6800    9.0220 C   0  0  0  0  0  0  0  0  0  0  0  0
  -31.3200   31.4050    9.9070 C   0  0  0  0  0  0  0  0  0  0  0  0
  -31.6610   31.4480   11.3480 C   0  0  0  0  0  3  0  0  0  0  0  0
  -31.6960   30.6910    7.5760 C   0  0  0  0  0  0  0  0  0  0  0  0
  -30.4830   31.4480    7.2160 C   0  0  0  0  0  0  0  0  0  0  0  0
  -29.8080   32.1160    8.1640 C   0  0  0  0  0  0  0  0  0  0  0  0
  -30.1940   32.0970    9.4520 O   0  0  0  0  0  0  0  0  0  0  0  0
  -32.3200   30.0990    6.7100 O   0  0  0  0  0  0  0  0  0  0  0  0
  -28.5640   32.9230    7.8510 C   0  0  0  0  0  0  0  0  0  0  0  0
  -27.6770   33.2990    8.9810 C   0  0  0  0  0  3  0  0  0  0  0  0
  -26.5050   34.0430    8.7550 C   0  0  0  0  0  3  0  0  0  0  0  0
  -26.1380   34.4640    7.3830 C   0  0  0  0  0  0  0  0  0  0  0  0
  -26.9800   34.1190    6.2900 C   0  0  0  0  0  0  0  0  0  0  0  0
  -28.2220   33.3420    6.5320 C   0  0  0  0  0  3  0  0  0  0  0  0
  -24.9660   35.1950    7.1800 O   0  0  0  0  0  0  0  0  0  0  0  0
  -24.4190   35.4160    7.9090 H   0  0  0  0  0  0  0  0  0  0  0  0
  -26.6190   34.5220    5.0000 O   0  0  0  0  0  0  0  0  0  0  0  0
  -25.8310   35.0110    4.8660 H   0  0  0  0  0  0  0  0  0  0  0  0
  -33.1480   30.7740   13.1880 O   0  0  0  0  0  0  0  0  0  0  0  0
  -33.9040   30.3080   13.4860 H   0  0  0  0  0  0  0  0  0  0  0  0
  -34.0980   29.2280    8.5910 O   0  0  0  0  0  0  0  0  0  0  0  0
  -34.8540   28.7630    8.8890 H   0  0  0  0  0  0  0  0  0  0  0  0
  -30.0470   31.4550    5.9480 O   0  0  0  0  0  0  0  0  0  0  0  0
  -30.5200   30.9880    5.2870 H   0  0  0  0  0  0  0  0  0  0  0  0
  1 22  1  0  0  0  0
  2  1  2  0  0  0  0
  3  2  1  0  0  0  0
  4  3  2  0  0  0  0
  4  5  1  0  0  0  0
  5  6  2  0  0  0  0
  6  1  1  0  0  0  0
  7  4  1  0  0  0  0
  8  7  1  0  0  0  0
  8  9  2  0  0  0  0
  9 10  1  0  0  0  0
 10  5  1  0  0  0  0
 11  7  2  0  0  0  0
 12  9  1  0  0  0  0
 12 13  1  0  0  0  0
 14 13  2  0  0  0  0
 15 14  1  0  0  0  0
 16 17  1  0  0  0  0
 16 15  2  0  0  0  0
 17 12  2  0  0  0  0
 18 15  1  0  0  0  0
 18 19  1  0  0  0  0
 20 16  1  0  0  0  0
 21 20  1  0  0  0  0
 22 23  1  0  0  0  0
 24 25  1  0  0  0  0
 24  3  1  0  0  0  0
 26  8  1  0  0  0  0
 27 26  1  0  0  0  0
M  END
>  <minimizedAffinity>
-8.99794674

$$$$

 OpenBabel10112400443D

 27 29  0  0  0  0  0  0  0  0999 V2000
  -26.1850   35.0020    8.6750 C   0  0  0  0  0  0  0  0  0  0  0  0
  -25.9250   35.2260   10.1170 C   0  0  0  0  0  3  0  0  0  0  0  0
  -26.7040   34.5510   11.1020 C   0  0  0  0  0  0  0  0  0  0  0  0
  -27.7760   33.6240   10.6640 C   0  0  0  0  0  0  0  0  0  0  0  0
  -28.0280   33.4080    9.3080 C   0  0  0  0  0  0  0  0  0  0  0  0
  -27.2200   34.1080    8.2830 C   0  0  0  0  0  3  0  0  0  0  0  0
  -28.6460   32.8690   11.6350 C   0  0  0  0  0  0  0  0  0  0  0  0
  -29.6740   31.9660   11.0850 C   0  0  0  0  0  0  0  0  0  0  0  0
  -29.8240   31.8570    9.7560 C   0  0  0  0  0  0  0  0  0  0  0  0
  -29.0400   32.5340    8.8990 O   0  0  0  0  0  0  0  0  0  0  0  0
  -28.5220   32.9820   12.8440 O   0  0  0  0  0  0  0  0  0  0  0  0
  -30.8720   30.9570    9.1340 C   0  0  0  0  0  0  0  0  0  0  0  0
  -30.4260   29.9610    8.1280 C   0  0  0  0  0  3  0  0  0  0  0  0
  -31.3510   29.0950    7.5170 C   0  0  0  0  0  3  0  0  0  0  0  0
  -32.7870   29.1630    7.8720 C   0  0  0  0  0  0  0  0  0  0  0  0
  -33.2340   30.1150    8.8290 C   0  0  0  0  0  0  0  0  0  0  0  0
  -32.2570   31.0360    9.4640 C   0  0  0  0  0  3  0  0  0  0  0  0
  -33.6860   28.2870    7.2600 O   0  0  0  0  0  0  0  0  0  0  0  0
  -33.3790   27.6640    6.6310 H   0  0  0  0  0  0  0  0  0  0  0  0
  -34.5930   30.1660    9.1540 O   0  0  0  0  0  0  0  0  0  0  0  0
  -35.1950   29.5760    8.7440 H   0  0  0  0  0  0  0  0  0  0  0  0
  -25.4070   35.6750    7.7310 O   0  0  0  0  0  0  0  0  0  0  0  0
  -24.7300   36.2600    8.0120 H   0  0  0  0  0  0  0  0  0  0  0  0
  -26.4750   34.7490   12.4660 O   0  0  0  0  0  0  0  0  0  0  0  0
  -25.7990   35.3340   12.7470 H   0  0  0  0  0  0  0  0  0  0  0  0
  -30.4460   31.2450   11.9110 O   0  0  0  0  0  0  0  0  0  0  0  0
  -30.3400   31.3240   12.8400 H   0  0  0  0  0  0  0  0  0  0  0  0
  1  2  1  0  0  0  0
  2  3  2  0  0  0  0
  3 24  1  0  0  0  0
  4  3  1  0  0  0  0
  4  7  1  0  0  0  0
  5  4  2  0  0  0  0
  6  1  2  0  0  0  0
  6  5  1  0  0  0  0
  7 11  2  0  0  0  0
  8  7  1  0  0  0  0
  8 26  1  0  0  0  0
  9  8  2  0  0  0  0
 10  5  1  0  0  0  0
 10  9  1  0  0  0  0
 12 17  1  0  0  0  0
 12  9  1  0  0  0  0
 13 12  2  0  0  0  0
 14 15  2  0  0  0  0
 14 13  1  0  0  0  0
 15 16  1  0  0  0  0
 16 20  1  0  0  0  0
 16 17  2  0  0  0  0
 18 15  1  0  0  0  0
 19 18  1  0  0  0  0
 21 20  1  0  0  0  0
 22 23  1  0  0  0  0
 22  1  1  0  0  0  0
 24 25  1  0  0  0  0
 26 27  1  0  0  0  0
M  END
>  <minimizedAffinity>
-8.84437656

$$$$

 OpenBabel10112400443D

 27 29  0  0  0  0  0  0  0  0999 V2000
  -32.7550   30.6520   12.1890 C   0  0  0  0  0  0  0  0  0  0  0  0
  -33.6380   30.1660   11.1030 C   0  0  0  0  0  3  0  0  0  0  0  0
  -33.3380   30.4660    9.7420 C   0  0  0  0  0  0  0  0  0  0  0  0
  -32.1300   31.2700    9.4300 C   0  0  0  0  0  0  0  0  0  0  0  0
  -31.2930   31.7330   10.4470 C   0  0  0  0  0  0  0  0  0  0  0  0
  -31.6040   31.4220   11.8610 C   0  0  0  0  0  3  0  0  0  0  0  0
  -31.7360   31.6330    8.0220 C   0  0  0  0  0  0  0  0  0  0  0  0
  -30.5090   32.4280    7.8300 C   0  0  0  0  0  0  0  0  0  0  0  0
  -29.7970   32.8230    8.8970 C   0  0  0  0  0  0  0  0  0  0  0  0
  -30.1580   32.4910   10.1490 O   0  0  0  0  0  0  0  0  0  0  0  0
  -32.3940   31.2900    7.0530 O   0  0  0  0  0  0  0  0  0  0  0  0
  -28.5360   33.6540    8.7620 C   0  0  0  0  0  0  0  0  0  0  0  0
  -27.6720   33.4190    7.5790 C   0  0  0  0  0  3  0  0  0  0  0  0
  -26.4910   34.1610    7.3950 C   0  0  0  0  0  3  0  0  0  0  0  0
  -26.0920   35.1900    8.3830 C   0  0  0  0  0  0  0  0  0  0  0  0
  -26.9050   35.4230    9.5270 C   0  0  0  0  0  0  0  0  0  0  0  0
  -28.1450   34.6310    9.7240 C   0  0  0  0  0  3  0  0  0  0  0  0
  -24.9210   35.9210    8.1760 O   0  0  0  0  0  0  0  0  0  0  0  0
  -24.3940   35.7580    7.4180 H   0  0  0  0  0  0  0  0  0  0  0  0
  -26.5160   36.3990   10.4490 O   0  0  0  0  0  0  0  0  0  0  0  0
  -25.7300   36.8900   10.3080 H   0  0  0  0  0  0  0  0  0  0  0  0
  -33.0720   30.3440   13.5140 O   0  0  0  0  0  0  0  0  0  0  0  0
  -33.8350   29.8350   13.7070 H   0  0  0  0  0  0  0  0  0  0  0  0
  -34.1580   30.0180    8.7040 O   0  0  0  0  0  0  0  0  0  0  0  0
  -34.9210   29.5100    8.8970 H   0  0  0  0  0  0  0  0  0  0  0  0
  -30.0990   32.7420    6.5930 O   0  0  0  0  0  0  0  0  0  0  0  0
  -30.5980   32.4660    5.8490 H   0  0  0  0  0  0  0  0  0  0  0  0
  1 22  1  0  0  0  0
  2  1  2  0  0  0  0
  3  2  1  0  0  0  0
  4  3  2  0  0  0  0
  4  5  1  0  0  0  0
  5  6  2  0  0  0  0
  6  1  1  0  0  0  0
  7  4  1  0  0  0  0
  8  7  1  0  0  0  0
  8  9  2  0  0  0  0
  9 10  1  0  0  0  0
 10  5  1  0  0  0  0
 11  7  2  0  0  0  0
 12  9  1  0  0  0  0
 12 17  1  0  0  0  0
 13 12  2  0  0  0  0
 14 13  1  0  0  0  0
 14 15  2  0  0  0  0
 15 16  1  0  0  0  0
 16 17  2  0  0  0  0
 16 20  1  0  0  0  0
 18 15  1  0  0  0  0
 19 18  1  0  0  0  0
 21 20  1  0  0  0  0
 22 23  1  0  0  0  0
 24 25  1  0  0  0  0
 24  3  1  0  0  0  0
 26  8  1  0  0  0  0
 27 26  1  0  0  0  0
M  END
>  <minimizedAffinity>
-8.71826935

$$$$

 OpenBabel10112400443D

 27 29  0  0  0  0  0  0  0  0999 V2000
  -32.8010   30.9870    9.7530 C   0  0  0  0  0  0  0  0  0  0  0  0
  -32.9010   30.5850    8.3300 C   0  0  0  0  0  3  0  0  0  0  0  0
  -31.8780   30.9480    7.4060 C   0  0  0  0  0  0  0  0  0  0  0  0
  -30.7150   31.7330    7.8890 C   0  0  0  0  0  0  0  0  0  0  0  0
  -30.6140   32.1170    9.2270 C   0  0  0  0  0  0  0  0  0  0  0  0
  -31.6760   31.7400   10.1880 C   0  0  0  0  0  3  0  0  0  0  0  0
  -29.5880   32.1590    6.9840 C   0  0  0  0  0  0  0  0  0  0  0  0
  -28.4780   32.9280    7.5760 C   0  0  0  0  0  0  0  0  0  0  0  0
  -28.5070   33.2450    8.8800 C   0  0  0  0  0  0  0  0  0  0  0  0
  -29.5180   32.8580    9.6780 O   0  0  0  0  0  0  0  0  0  0  0  0
  -29.5710   31.8870    5.7940 O   0  0  0  0  0  0  0  0  0  0  0  0
  -27.4030   34.0460    9.5400 C   0  0  0  0  0  0  0  0  0  0  0  0
  -26.4640   34.7890    8.6630 C   0  0  0  0  0  3  0  0  0  0  0  0
  -25.4200   35.5540    9.2160 C   0  0  0  0  0  3  0  0  0  0  0  0
  -25.2440   35.6280   10.6840 C   0  0  0  0  0  0  0  0  0  0  0  0
  -26.1300   34.9160   11.5390 C   0  0  0  0  0  0  0  0  0  0  0  0
  -27.2240   34.1010   10.9530 C   0  0  0  0  0  3  0  0  0  0  0  0
  -24.2060   36.4010   11.2110 O   0  0  0  0  0  0  0  0  0  0  0  0
  -23.6290   36.8650   10.6370 H   0  0  0  0  0  0  0  0  0  0  0  0
  -25.9500   34.9990   12.9240 O   0  0  0  0  0  0  0  0  0  0  0  0
  -25.2550   35.5180   13.2760 H   0  0  0  0  0  0  0  0  0  0  0  0
  -33.8180   30.6180   10.6370 O   0  0  0  0  0  0  0  0  0  0  0  0
  -34.5500   30.1210   10.3280 H   0  0  0  0  0  0  0  0  0  0  0  0
  -31.9530   30.5790    6.0610 O   0  0  0  0  0  0  0  0  0  0  0  0
  -32.6850   30.0830    5.7520 H   0  0  0  0  0  0  0  0  0  0  0  0
  -27.4360   33.2950    6.8160 O   0  0  0  0  0  0  0  0  0  0  0  0
  -27.4180   33.0740    5.9060 H   0  0  0  0  0  0  0  0  0  0  0  0
  1  6  1  0  0  0  0
  1 22  1  0  0  0  0
  2  1  2  0  0  0  0
  3  4  2  0  0  0  0
  3  2  1  0  0  0  0
  4  5  1  0  0  0  0
  5 10  1  0  0  0  0
  5  6  2  0  0  0  0
  7  8  1  0  0  0  0
  7  4  1  0  0  0  0
  8  9  2  0  0  0  0
  9 12  1  0  0  0  0
  9 10  1  0  0  0  0
 11  7  2  0  0  0  0
 12 17  1  0  0  0  0
 13 14  1  0  0  0  0
 13 12  2  0  0  0  0
 14 15  2  0  0  0  0
 15 18  1  0  0  0  0
 15 16  1  0  0  0  0
 16 20  1  0  0  0  0
 17 16  2  0  0  0  0
 19 18  1  0  0  0  0
 20 21  1  0  0  0  0
 23 22  1  0  0  0  0
 24  3  1  0  0  0  0
 25 24  1  0  0  0  0
 26  8  1  0  0  0  0
 27 26  1  0  0  0  0
M  END
>  <minimizedAffinity>
-8.5385437

$$$$
