
 OpenBabel10112400443D

 27 29  0  0  0  0  0  0  0  0999 V2000
  -36.4590   23.5940    2.5370 C   0  0  0  0  0  0  0  0  0  0  0  0
  -35.1660   24.3080    2.4290 C   0  0  0  0  0  3  0  0  0  0  0  0
  -34.7890   25.2680    3.4130 C   0  0  0  0  0  0  0  0  0  0  0  0
  -35.7090   25.5400    4.5450 C   0  0  0  0  0  0  0  0  0  0  0  0
  -36.9300   24.8730    4.6540 C   0  0  0  0  0  0  0  0  0  0  0  0
  -37.3230   23.8760    3.6310 C   0  0  0  0  0  3  0  0  0  0  0  0
  -35.3910   26.5360    5.6300 C   0  0  0  0  0  0  0  0  0  0  0  0
  -36.3770   26.7180    6.7110 C   0  0  0  0  0  0  0  0  0  0  0  0
  -37.5240   26.0220    6.6930 C   0  0  0  0  0  0  0  0  0  0  0  0
  -37.7950   25.1340    5.7200 O   0  0  0  0  0  0  0  0  0  0  0  0
  -34.3570   27.1840    5.6370 O   0  0  0  0  0  0  0  0  0  0  0  0
  -38.5800   26.1780    7.7690 C   0  0  0  0  0  0  0  0  0  0  0  0
  -38.7290   25.0840    8.7600 C   0  0  0  0  0  3  0  0  0  0  0  0
  -39.6880   25.1710    9.7850 C   0  0  0  0  0  3  0  0  0  0  0  0
  -40.5650   26.3600    9.8910 C   0  0  0  0  0  0  0  0  0  0  0  0
  -40.4410   27.4150    8.9450 C   0  0  0  0  0  0  0  0  0  0  0  0
  -39.4350   27.3150    7.8570 C   0  0  0  0  0  3  0  0  0  0  0  0
  -41.5040   26.4300   10.9210 O   0  0  0  0  0  0  0  0  0  0  0  0
  -41.5760   25.7280   11.5380 H   0  0  0  0  0  0  0  0  0  0  0  0
  -41.2750   28.5320    9.0590 O   0  0  0  0  0  0  0  0  0  0  0  0
  -41.9040   28.5780    9.7520 H   0  0  0  0  0  0  0  0  0  0  0  0
  -36.8040   22.6580    1.5580 O   0  0  0  0  0  0  0  0  0  0  0  0
  -36.2200   22.4880    0.8460 H   0  0  0  0  0  0  0  0  0  0  0  0
  -33.5730   25.9510    3.3300 O   0  0  0  0  0  0  0  0  0  0  0  0
  -32.9890   25.7820    2.6170 H   0  0  0  0  0  0  0  0  0  0  0  0
  -36.1200   27.5660    7.7180 O   0  0  0  0  0  0  0  0  0  0  0  0
  -35.3190   28.0520    7.7290 H   0  0  0  0  0  0  0  0  0  0  0  0
  1  6  1  0  0  0  0
  2  1  2  0  0  0  0
  2  3  1  0  0  0  0
  3  4  2  0  0  0  0
  4  5  1  0  0  0  0
  4  7  1  0  0  0  0
  5 10  1  0  0  0  0
  6  5  2  0  0  0  0
  7 11  2  0  0  0  0
  7  8  1  0  0  0  0
  8 26  1  0  0  0  0
  9  8  2  0  0  0  0
  9 12  1  0  0  0  0
 10  9  1  0  0  0  0
 12 17  2  0  0  0  0
 12 13  1  0  0  0  0
 13 14  2  0  0  0  0
 14 15  1  0  0  0  0
 15 18  1  0  0  0  0
 16 20  1  0  0  0  0
 16 15  2  0  0  0  0
 17 16  1  0  0  0  0
 18 19  1  0  0  0  0
 20 21  1  0  0  0  0
 22  1  1  0  0  0  0
 23 22  1  0  0  0  0
 24  3  1  0  0  0  0
 25 24  1  0  0  0  0
 26 27  1  0  0  0  0
M  END
>  <minimizedAffinity>
-8.6351862

$$$$

 OpenBabel10112400443D

 27 29  0  0  0  0  0  0  0  0999 V2000
  -34.1330   28.2930    9.7770 C   0  0  0  0  0  0  0  0  0  0  0  0
  -35.3930   28.7570   10.4040 C   0  0  0  0  0  3  0  0  0  0  0  0
  -36.6500   28.4460    9.8080 C   0  0  0  0  0  0  0  0  0  0  0  0
  -36.6790   27.6530    8.5540 C   0  0  0  0  0  0  0  0  0  0  0  0
  -35.4970   27.2130    7.9570 C   0  0  0  0  0  0  0  0  0  0  0  0
  -34.1900   27.5360    8.5740 C   0  0  0  0  0  3  0  0  0  0  0  0
  -37.9610   27.2780    7.8580 C   0  0  0  0  0  0  0  0  0  0  0  0
  -37.8690   26.4790    6.6230 C   0  0  0  0  0  0  0  0  0  0  0  0
  -36.6650   26.1290    6.1430 C   0  0  0  0  0  0  0  0  0  0  0  0
  -35.5270   26.4680    6.7750 O   0  0  0  0  0  0  0  0  0  0  0  0
  -39.0550   27.6120    8.2840 O   0  0  0  0  0  0  0  0  0  0  0  0
  -36.5080   25.3210    4.8710 C   0  0  0  0  0  0  0  0  0  0  0  0
  -37.3590   24.1170    4.7020 C   0  0  0  0  0  3  0  0  0  0  0  0
  -37.2620   23.3280    3.5410 C   0  0  0  0  0  3  0  0  0  0  0  0
  -36.3080   23.6890    2.4680 C   0  0  0  0  0  0  0  0  0  0  0  0
  -35.4790   24.8350    2.6160 C   0  0  0  0  0  0  0  0  0  0  0  0
  -35.5750   25.6600    3.8470 C   0  0  0  0  0  3  0  0  0  0  0  0
  -36.2350   22.8960    1.3200 O   0  0  0  0  0  0  0  0  0  0  0  0
  -36.7870   22.1440    1.2350 H   0  0  0  0  0  0  0  0  0  0  0  0
  -34.5840   25.1630    1.5930 O   0  0  0  0  0  0  0  0  0  0  0  0
  -34.5370   24.6310    0.8230 H   0  0  0  0  0  0  0  0  0  0  0  0
  -32.9150   28.6120   10.3810 O   0  0  0  0  0  0  0  0  0  0  0  0
  -32.9010   29.1120   11.1740 H   0  0  0  0  0  0  0  0  0  0  0  0
  -37.8500   28.8740   10.3840 O   0  0  0  0  0  0  0  0  0  0  0  0
  -37.8360   29.3750   11.1750 H   0  0  0  0  0  0  0  0  0  0  0  0
  -38.9850   26.0900    5.9900 O   0  0  0  0  0  0  0  0  0  0  0  0
  -39.8250   26.3360    6.3260 H   0  0  0  0  0  0  0  0  0  0  0  0
  1 22  1  0  0  0  0
  1  2  1  0  0  0  0
  3 24  1  0  0  0  0
  3  2  2  0  0  0  0
  4  3  1  0  0  0  0
  5  4  2  0  0  0  0
  5  6  1  0  0  0  0
  6  1  2  0  0  0  0
  7 11  2  0  0  0  0
  7  4  1  0  0  0  0
  8  7  1  0  0  0  0
  9  8  2  0  0  0  0
  9 10  1  0  0  0  0
 10  5  1  0  0  0  0
 12  9  1  0  0  0  0
 13 12  1  0  0  0  0
 14 13  2  0  0  0  0
 15 16  2  0  0  0  0
 15 14  1  0  0  0  0
 16 17  1  0  0  0  0
 17 12  2  0  0  0  0
 18 15  1  0  0  0  0
 19 18  1  0  0  0  0
 20 16  1  0  0  0  0
 21 20  1  0  0  0  0
 22 23  1  0  0  0  0
 24 25  1  0  0  0  0
 26 27  1  0  0  0  0
 26  8  1  0  0  0  0
M  END
>  <minimizedAffinity>
-7.6493783

$$$$

 OpenBabel10112400443D

 27 29  0  0  0  0  0  0  0  0999 V2000
  -38.9530   27.0340   10.1270 C   0  0  0  0  0  0  0  0  0  0  0  0
  -37.7870   27.6390   10.8120 C   0  0  0  0  0  3  0  0  0  0  0  0
  -36.5010   27.6190   10.1980 C   0  0  0  0  0  0  0  0  0  0  0  0
  -36.3470   26.9840    8.8660 C   0  0  0  0  0  0  0  0  0  0  0  0
  -37.4400   26.4120    8.2130 C   0  0  0  0  0  0  0  0  0  0  0  0
  -38.7770   26.4320    8.8500 C   0  0  0  0  0  3  0  0  0  0  0  0
  -35.0270   26.9190    8.1440 C   0  0  0  0  0  0  0  0  0  0  0  0
  -34.9950   26.2730    6.8180 C   0  0  0  0  0  0  0  0  0  0  0  0
  -36.1180   25.7470    6.3050 C   0  0  0  0  0  0  0  0  0  0  0  0
  -37.2910   25.8130    6.9590 O   0  0  0  0  0  0  0  0  0  0  0  0
  -34.0010   27.3800    8.6180 O   0  0  0  0  0  0  0  0  0  0  0  0
  -36.1420   25.0580    4.9560 C   0  0  0  0  0  0  0  0  0  0  0  0
  -37.1400   23.9800    4.7440 C   0  0  0  0  0  3  0  0  0  0  0  0
  -37.2150   23.3060    3.5120 C   0  0  0  0  0  3  0  0  0  0  0  0
  -36.2990   23.6630    2.4050 C   0  0  0  0  0  0  0  0  0  0  0  0
  -35.3310   24.6890    2.5930 C   0  0  0  0  0  0  0  0  0  0  0  0
  -35.2460   25.3920    3.8980 C   0  0  0  0  0  3  0  0  0  0  0  0
  -36.3970   22.9870    1.1870 O   0  0  0  0  0  0  0  0  0  0  0  0
  -37.0390   22.3130    1.0760 H   0  0  0  0  0  0  0  0  0  0  0  0
  -34.4740   25.0160    1.5380 O   0  0  0  0  0  0  0  0  0  0  0  0
  -34.5420   24.5620    0.7210 H   0  0  0  0  0  0  0  0  0  0  0  0
  -40.2030   27.0680   10.7510 O   0  0  0  0  0  0  0  0  0  0  0  0
  -40.2960   27.4700   11.5920 H   0  0  0  0  0  0  0  0  0  0  0  0
  -35.3890   28.1840   10.8280 O   0  0  0  0  0  0  0  0  0  0  0  0
  -35.4820   28.5850   11.6700 H   0  0  0  0  0  0  0  0  0  0  0  0
  -33.8500   26.2250    6.1230 O   0  0  0  0  0  0  0  0  0  0  0  0
  -33.0660   26.5920    6.4830 H   0  0  0  0  0  0  0  0  0  0  0  0
  1 22  1  0  0  0  0
  1  2  1  0  0  0  0
  3  2  2  0  0  0  0
  3 24  1  0  0  0  0
  4  3  1  0  0  0  0
  5  6  1  0  0  0  0
  5  4  2  0  0  0  0
  6  1  2  0  0  0  0
  7 11  2  0  0  0  0
  7  4  1  0  0  0  0
  8  7  1  0  0  0  0
  9  8  2  0  0  0  0
  9 10  1  0  0  0  0
 10  5  1  0  0  0  0
 12  9  1  0  0  0  0
 13 12  1  0  0  0  0
 14 13  2  0  0  0  0
 15 16  2  0  0  0  0
 15 14  1  0  0  0  0
 16 17  1  0  0  0  0
 17 12  2  0  0  0  0
 18 15  1  0  0  0  0
 19 18  1  0  0  0  0
 20 16  1  0  0  0  0
 21 20  1  0  0  0  0
 22 23  1  0  0  0  0
 24 25  1  0  0  0  0
 26 27  1  0  0  0  0
 26  8  1  0  0  0  0
M  END
>  <minimizedAffinity>
-7.37272453

$$$$

 OpenBabel10112400443D

 27 29  0  0  0  0  0  0  0  0999 V2000
  -35.6400   24.9000    2.8840 C   0  0  0  0  0  0  0  0  0  0  0  0
  -36.8030   24.0640    3.2650 C   0  0  0  0  0  3  0  0  0  0  0  0
  -37.3560   24.1540    4.5750 C   0  0  0  0  0  0  0  0  0  0  0  0
  -36.7520   25.0950    5.5510 C   0  0  0  0  0  0  0  0  0  0  0  0
  -35.6560   25.8850    5.2010 C   0  0  0  0  0  0  0  0  0  0  0  0
  -35.0800   25.7930    3.8390 C   0  0  0  0  0  3  0  0  0  0  0  0
  -37.2720   25.2550    6.9550 C   0  0  0  0  0  0  0  0  0  0  0  0
  -36.5990   26.2290    7.8350 C   0  0  0  0  0  0  0  0  0  0  0  0
  -35.5420   26.9200    7.3800 C   0  0  0  0  0  0  0  0  0  0  0  0
  -35.0880   26.7690    6.1230 O   0  0  0  0  0  0  0  0  0  0  0  0
  -38.2210   24.6130    7.3760 O   0  0  0  0  0  0  0  0  0  0  0  0
  -34.8020   27.9220    8.2420 C   0  0  0  0  0  0  0  0  0  0  0  0
  -33.3280   28.0150    8.0900 C   0  0  0  0  0  3  0  0  0  0  0  0
  -32.5850   28.9290    8.8590 C   0  0  0  0  0  3  0  0  0  0  0  0
  -33.2630   29.8130    9.8340 C   0  0  0  0  0  0  0  0  0  0  0  0
  -34.6740   29.7330    9.9980 C   0  0  0  0  0  0  0  0  0  0  0  0
  -35.4550   28.7600    9.1930 C   0  0  0  0  0  3  0  0  0  0  0  0
  -32.5070   30.7190   10.5800 O   0  0  0  0  0  0  0  0  0  0  0  0
  -31.5780   30.7630   10.4630 H   0  0  0  0  0  0  0  0  0  0  0  0
  -35.3000   30.5760   10.9210 O   0  0  0  0  0  0  0  0  0  0  0  0
  -34.7910   31.1840   11.4210 H   0  0  0  0  0  0  0  0  0  0  0  0
  -35.1180   24.7920    1.5930 O   0  0  0  0  0  0  0  0  0  0  0  0
  -35.5030   24.1970    0.9800 H   0  0  0  0  0  0  0  0  0  0  0  0
  -38.4520   23.3740    4.9540 O   0  0  0  0  0  0  0  0  0  0  0  0
  -38.8360   22.7790    4.3410 H   0  0  0  0  0  0  0  0  0  0  0  0
  -37.0500   26.4320    9.0810 O   0  0  0  0  0  0  0  0  0  0  0  0
  -37.7880   25.9480    9.3980 H   0  0  0  0  0  0  0  0  0  0  0  0
  1  2  2  0  0  0  0
  1  6  1  0  0  0  0
  2  3  1  0  0  0  0
  3 24  1  0  0  0  0
  3  4  2  0  0  0  0
  4  7  1  0  0  0  0
  5  4  1  0  0  0  0
  5 10  1  0  0  0  0
  6  5  2  0  0  0  0
  7 11  2  0  0  0  0
  7  8  1  0  0  0  0
  8 26  1  0  0  0  0
  9  8  2  0  0  0  0
  9 12  1  0  0  0  0
 10  9  1  0  0  0  0
 12 17  1  0  0  0  0
 13 12  2  0  0  0  0
 13 14  1  0  0  0  0
 14 15  2  0  0  0  0
 15 16  1  0  0  0  0
 15 18  1  0  0  0  0
 16 20  1  0  0  0  0
 17 16  2  0  0  0  0
 19 18  1  0  0  0  0
 20 21  1  0  0  0  0
 22  1  1  0  0  0  0
 23 22  1  0  0  0  0
 25 24  1  0  0  0  0
 26 27  1  0  0  0  0
M  END
>  <minimizedAffinity>
-6.75070286

$$$$

 OpenBabel10112400443D

 27 29  0  0  0  0  0  0  0  0999 V2000
  -35.9080   28.7750   10.2560 C   0  0  0  0  0  0  0  0  0  0  0  0
  -37.1830   28.4190   10.9210 C   0  0  0  0  0  3  0  0  0  0  0  0
  -38.0820   27.4960   10.3100 C   0  0  0  0  0  0  0  0  0  0  0  0
  -37.7210   26.8970    9.0010 C   0  0  0  0  0  0  0  0  0  0  0  0
  -36.5220   27.2270    8.3680 C   0  0  0  0  0  0  0  0  0  0  0  0
  -35.5880   28.1860    9.0010 C   0  0  0  0  0  3  0  0  0  0  0  0
  -38.6090   25.9130    8.2850 C   0  0  0  0  0  0  0  0  0  0  0  0
  -38.1430   25.3750    6.9940 C   0  0  0  0  0  0  0  0  0  0  0  0
  -36.9710   25.7840    6.4840 C   0  0  0  0  0  0  0  0  0  0  0  0
  -36.1860   26.6620    7.1340 O   0  0  0  0  0  0  0  0  0  0  0  0
  -39.6830   25.5540    8.7400 O   0  0  0  0  0  0  0  0  0  0  0  0
  -36.4490   25.2770    5.1550 C   0  0  0  0  0  0  0  0  0  0  0  0
  -35.0960   25.7130    4.7280 C   0  0  0  0  0  3  0  0  0  0  0  0
  -34.5540   25.2740    3.5060 C   0  0  0  0  0  3  0  0  0  0  0  0
  -35.3260   24.3670    2.6270 C   0  0  0  0  0  0  0  0  0  0  0  0
  -36.6280   23.9450    3.0170 C   0  0  0  0  0  0  0  0  0  0  0  0
  -37.2020   24.4190    4.3020 C   0  0  0  0  0  3  0  0  0  0  0  0
  -34.7650   23.9360    1.4230 O   0  0  0  0  0  0  0  0  0  0  0  0
  -33.9070   24.2220    1.1780 H   0  0  0  0  0  0  0  0  0  0  0  0
  -37.3440   23.0870    2.1760 O   0  0  0  0  0  0  0  0  0  0  0  0
  -36.9660   22.7980    1.3690 H   0  0  0  0  0  0  0  0  0  0  0  0
  -35.0460   29.6820   10.8770 O   0  0  0  0  0  0  0  0  0  0  0  0
  -35.2780   30.0570   11.7040 H   0  0  0  0  0  0  0  0  0  0  0  0
  -39.2890   27.1480   10.9210 O   0  0  0  0  0  0  0  0  0  0  0  0
  -39.5200   27.5240   11.7480 H   0  0  0  0  0  0  0  0  0  0  0  0
  -38.8820   24.4680    6.3390 O   0  0  0  0  0  0  0  0  0  0  0  0
  -39.7010   24.1830    6.6960 H   0  0  0  0  0  0  0  0  0  0  0  0
  1 22  1  0  0  0  0
  1  2  1  0  0  0  0
  3 24  1  0  0  0  0
  3  2  2  0  0  0  0
  4  3  1  0  0  0  0
  5  6  1  0  0  0  0
  5  4  2  0  0  0  0
  6  1  2  0  0  0  0
  7 11  2  0  0  0  0
  7  4  1  0  0  0  0
  8  7  1  0  0  0  0
  9  8  2  0  0  0  0
  9 10  1  0  0  0  0
 10  5  1  0  0  0  0
 12  9  1  0  0  0  0
 13 12  1  0  0  0  0
 14 13  2  0  0  0  0
 15 16  2  0  0  0  0
 15 14  1  0  0  0  0
 16 17  1  0  0  0  0
 17 12  2  0  0  0  0
 18 15  1  0  0  0  0
 19 18  1  0  0  0  0
 20 16  1  0  0  0  0
 21 20  1  0  0  0  0
 22 23  1  0  0  0  0
 24 25  1  0  0  0  0
 26 27  1  0  0  0  0
 26  8  1  0  0  0  0
M  END
>  <minimizedAffinity>
-6.29344893

$$$$

 OpenBabel10112400443D

 27 29  0  0  0  0  0  0  0  0999 V2000
  -35.8860   24.4690    2.8360 C   0  0  0  0  0  0  0  0  0  0  0  0
  -34.4400   24.6270    3.1140 C   0  0  0  0  0  3  0  0  0  0  0  0
  -33.9980   25.0920    4.3870 C   0  0  0  0  0  0  0  0  0  0  0  0
  -35.0060   25.4150    5.4270 C   0  0  0  0  0  0  0  0  0  0  0  0
  -36.3710   25.2710    5.1730 C   0  0  0  0  0  0  0  0  0  0  0  0
  -36.8310   24.7880    3.8500 C   0  0  0  0  0  3  0  0  0  0  0  0
  -34.6290   25.9110    6.7990 C   0  0  0  0  0  0  0  0  0  0  0  0
  -35.7160   26.1910    7.7560 C   0  0  0  0  0  0  0  0  0  0  0  0
  -36.9940   26.0230    7.3820 C   0  0  0  0  0  0  0  0  0  0  0  0
  -37.3170   25.5780    6.1540 O   0  0  0  0  0  0  0  0  0  0  0  0
  -33.4680   26.0820    7.1340 O   0  0  0  0  0  0  0  0  0  0  0  0
  -38.1520   26.3080    8.3160 C   0  0  0  0  0  0  0  0  0  0  0  0
  -38.6690   27.6980    8.3770 C   0  0  0  0  0  3  0  0  0  0  0  0
  -39.7450   28.0260    9.2220 C   0  0  0  0  0  3  0  0  0  0  0  0
  -40.3790   26.9860   10.0640 C   0  0  0  0  0  0  0  0  0  0  0  0
  -39.8920   25.6500   10.0240 C   0  0  0  0  0  0  0  0  0  0  0  0
  -38.7490   25.3090    9.1390 C   0  0  0  0  0  3  0  0  0  0  0  0
  -41.4520   27.3310   10.8890 O   0  0  0  0  0  0  0  0  0  0  0  0
  -41.7640   28.2150   10.9070 H   0  0  0  0  0  0  0  0  0  0  0  0
  -40.5030   24.6790   10.8240 O   0  0  0  0  0  0  0  0  0  0  0  0
  -41.2230   24.9120   11.3760 H   0  0  0  0  0  0  0  0  0  0  0  0
  -36.2920   24.0120    1.5800 O   0  0  0  0  0  0  0  0  0  0  0  0
  -35.6520   23.8080    0.9260 H   0  0  0  0  0  0  0  0  0  0  0  0
  -32.6380   25.2480    4.6700 O   0  0  0  0  0  0  0  0  0  0  0  0
  -31.9990   25.0450    4.0160 H   0  0  0  0  0  0  0  0  0  0  0  0
  -35.4270   26.5980    9.0000 O   0  0  0  0  0  0  0  0  0  0  0  0
  -34.5340   26.7160    9.2590 H   0  0  0  0  0  0  0  0  0  0  0  0
  1  2  2  0  0  0  0
  1  6  1  0  0  0  0
  2  3  1  0  0  0  0
  3 24  1  0  0  0  0
  3  4  2  0  0  0  0
  4  7  1  0  0  0  0
  5  4  1  0  0  0  0
  5 10  1  0  0  0  0
  6  5  2  0  0  0  0
  7 11  2  0  0  0  0
  7  8  1  0  0  0  0
  8 26  1  0  0  0  0
  9  8  2  0  0  0  0
  9 12  1  0  0  0  0
 10  9  1  0  0  0  0
 12 13  2  0  0  0  0
 12 17  1  0  0  0  0
 13 14  1  0  0  0  0
 14 15  2  0  0  0  0
 15 18  1  0  0  0  0
 16 15  1  0  0  0  0
 16 20  1  0  0  0  0
 17 16  2  0  0  0  0
 18 19  1  0  0  0  0
 20 21  1  0  0  0  0
 22  1  1  0  0  0  0
 23 22  1  0  0  0  0
 25 24  1  0  0  0  0
 26 27  1  0  0  0  0
M  END
>  <minimizedAffinity>
-6.08343935

$$$$

 OpenBabel10112400443D

 27 29  0  0  0  0  0  0  0  0999 V2000
  -34.7080   24.9940    2.2160 C   0  0  0  0  0  0  0  0  0  0  0  0
  -35.6960   23.8970    2.0840 C   0  0  0  0  0  3  0  0  0  0  0  0
  -36.6660   23.6750    3.1040 C   0  0  0  0  0  0  0  0  0  0  0  0
  -36.6740   24.5580    4.2970 C   0  0  0  0  0  0  0  0  0  0  0  0
  -35.7470   25.5930    4.4300 C   0  0  0  0  0  0  0  0  0  0  0  0
  -34.7380   25.8240    3.3720 C   0  0  0  0  0  3  0  0  0  0  0  0
  -37.6640   24.3960    5.4220 C   0  0  0  0  0  0  0  0  0  0  0  0
  -37.5840   25.3380    6.5530 C   0  0  0  0  0  0  0  0  0  0  0  0
  -36.6330   26.2860    6.5670 C   0  0  0  0  0  0  0  0  0  0  0  0
  -35.7560   26.4210    5.5570 O   0  0  0  0  0  0  0  0  0  0  0  0
  -38.5170   23.5230    5.4190 O   0  0  0  0  0  0  0  0  0  0  0  0
  -36.4930   27.2710    7.7100 C   0  0  0  0  0  0  0  0  0  0  0  0
  -37.6200   28.2020    7.9670 C   0  0  0  0  0  3  0  0  0  0  0  0
  -37.5510   29.1380    9.0150 C   0  0  0  0  0  3  0  0  0  0  0  0
  -36.3520   29.2060    9.8800 C   0  0  0  0  0  0  0  0  0  0  0  0
  -35.2590   28.3260    9.6440 C   0  0  0  0  0  0  0  0  0  0  0  0
  -35.3300   27.3470    8.5300 C   0  0  0  0  0  3  0  0  0  0  0  0
  -36.3090   30.1360   10.9210 O   0  0  0  0  0  0  0  0  0  0  0  0
  -37.0350   30.7110   11.0670 H   0  0  0  0  0  0  0  0  0  0  0  0
  -34.1340   28.4020   10.4710 O   0  0  0  0  0  0  0  0  0  0  0  0
  -34.1080   29.0260   11.1700 H   0  0  0  0  0  0  0  0  0  0  0  0
  -33.7680   25.1890    1.2020 O   0  0  0  0  0  0  0  0  0  0  0  0
  -33.7670   24.6300    0.4500 H   0  0  0  0  0  0  0  0  0  0  0  0
  -37.6060   22.6460    2.9990 O   0  0  0  0  0  0  0  0  0  0  0  0
  -37.6040   22.0870    2.2470 H   0  0  0  0  0  0  0  0  0  0  0  0
  -38.4680   25.2570    7.5580 O   0  0  0  0  0  0  0  0  0  0  0  0
  -39.1300   24.5940    7.5480 H   0  0  0  0  0  0  0  0  0  0  0  0
  1  6  1  0  0  0  0
  2  1  2  0  0  0  0
  2  3  1  0  0  0  0
  3  4  2  0  0  0  0
  4  5  1  0  0  0  0
  4  7  1  0  0  0  0
  5 10  1  0  0  0  0
  6  5  2  0  0  0  0
  7  8  1  0  0  0  0
  8  9  2  0  0  0  0
  8 26  1  0  0  0  0
  9 12  1  0  0  0  0
 10  9  1  0  0  0  0
 11  7  2  0  0  0  0
 12 13  2  0  0  0  0
 12 17  1  0  0  0  0
 13 14  1  0  0  0  0
 14 15  2  0  0  0  0
 15 18  1  0  0  0  0
 16 15  1  0  0  0  0
 16 20  1  0  0  0  0
 17 16  2  0  0  0  0
 18 19  1  0  0  0  0
 20 21  1  0  0  0  0
 22  1  1  0  0  0  0
 23 22  1  0  0  0  0
 24  3  1  0  0  0  0
 25 24  1  0  0  0  0
 27 26  1  0  0  0  0
M  END
>  <minimizedAffinity>
-5.68329763

$$$$
