
 OpenBabel10112400473D

 27 29  0  0  0  0  0  0  0  0999 V2000
  -25.9760   34.9720   10.7510 C   0  0  0  0  0  0  0  0  0  0  0  0
  -25.3020   35.3980    9.5020 C   0  0  0  0  0  3  0  0  0  0  0  0
  -25.8110   34.9930    8.2340 C   0  0  0  0  0  0  0  0  0  0  0  0
  -27.0250   34.1400    8.1830 C   0  0  0  0  0  0  0  0  0  0  0  0
  -27.6650   33.7330    9.3540 C   0  0  0  0  0  0  0  0  0  0  0  0
  -27.1360   34.1530   10.6720 C   0  0  0  0  0  3  0  0  0  0  0  0
  -27.6320   33.6670    6.8880 C   0  0  0  0  0  0  0  0  0  0  0  0
  -28.8450   32.8310    6.9590 C   0  0  0  0  0  0  0  0  0  0  0  0
  -29.3570   32.4970    8.1530 C   0  0  0  0  0  0  0  0  0  0  0  0
  -28.8070   32.9280    9.3030 O   0  0  0  0  0  0  0  0  0  0  0  0
  -27.1560   33.9530    5.8020 O   0  0  0  0  0  0  0  0  0  0  0  0
  -30.5920   31.6290    8.2880 C   0  0  0  0  0  0  0  0  0  0  0  0
  -30.7000   30.4340    7.4140 C   0  0  0  0  0  3  0  0  0  0  0  0
  -31.8200   29.5870    7.4950 C   0  0  0  0  0  3  0  0  0  0  0  0
  -32.9100   29.8750    8.4550 C   0  0  0  0  0  0  0  0  0  0  0  0
  -32.8260   31.0200    9.2950 C   0  0  0  0  0  0  0  0  0  0  0  0
  -31.6480   31.9190    9.2000 C   0  0  0  0  0  3  0  0  0  0  0  0
  -34.0080   29.0150    8.5240 O   0  0  0  0  0  0  0  0  0  0  0  0
  -34.0510   28.2640    7.9650 H   0  0  0  0  0  0  0  0  0  0  0  0
  -33.8630   31.2780   10.1970 O   0  0  0  0  0  0  0  0  0  0  0  0
  -34.5990   30.6990   10.2430 H   0  0  0  0  0  0  0  0  0  0  0  0
  -25.4550   35.3830   11.9800 O   0  0  0  0  0  0  0  0  0  0  0  0
  -24.6890   35.9230   12.0070 H   0  0  0  0  0  0  0  0  0  0  0  0
  -25.1900   35.3840    7.0450 O   0  0  0  0  0  0  0  0  0  0  0  0
  -24.4240   35.9230    7.0730 H   0  0  0  0  0  0  0  0  0  0  0  0
  -29.4420   32.4180    5.8310 O   0  0  0  0  0  0  0  0  0  0  0  0
  -29.0820   32.6500    4.9970 H   0  0  0  0  0  0  0  0  0  0  0  0
  1 22  1  0  0  0  0
  2  1  2  0  0  0  0
  3  2  1  0  0  0  0
  4  3  2  0  0  0  0
  4  5  1  0  0  0  0
  5  6  2  0  0  0  0
  6  1  1  0  0  0  0
  7  8  1  0  0  0  0
  7  4  1  0  0  0  0
  8  9  2  0  0  0  0
  9 12  1  0  0  0  0
  9 10  1  0  0  0  0
 10  5  1  0  0  0  0
 11  7  2  0  0  0  0
 12 17  1  0  0  0  0
 13 14  1  0  0  0  0
 13 12  2  0  0  0  0
 14 15  2  0  0  0  0
 15 18  1  0  0  0  0
 15 16  1  0  0  0  0
 16 20  1  0  0  0  0
 17 16  2  0  0  0  0
 19 18  1  0  0  0  0
 20 21  1  0  0  0  0
 22 23  1  0  0  0  0
 24 25  1  0  0  0  0
 24  3  1  0  0  0  0
 26  8  1  0  0  0  0
 27 26  1  0  0  0  0
M  END
>  <minimizedAffinity>
-9.42317486

$$$$

 OpenBabel10112400473D

 27 29  0  0  0  0  0  0  0  0999 V2000
  -33.4230   30.3110    9.6380 C   0  0  0  0  0  0  0  0  0  0  0  0
  -33.2980   30.0560   11.0930 C   0  0  0  0  0  3  0  0  0  0  0  0
  -32.1630   30.5310   11.8120 C   0  0  0  0  0  0  0  0  0  0  0  0
  -31.1100   31.2820   11.0850 C   0  0  0  0  0  0  0  0  0  0  0  0
  -31.2190   31.5260    9.7150 C   0  0  0  0  0  0  0  0  0  0  0  0
  -32.3980   31.0330    8.9660 C   0  0  0  0  0  3  0  0  0  0  0  0
  -29.8790   31.8210   11.7660 C   0  0  0  0  0  0  0  0  0  0  0  0
  -28.9040   32.5620   10.9440 C   0  0  0  0  0  0  0  0  0  0  0  0
  -29.1200   32.7170    9.6290 C   0  0  0  0  0  0  0  0  0  0  0  0
  -30.2250   32.2330    9.0330 O   0  0  0  0  0  0  0  0  0  0  0  0
  -29.6720   31.6640   12.9580 O   0  0  0  0  0  0  0  0  0  0  0  0
  -28.1470   33.4560    8.7330 C   0  0  0  0  0  0  0  0  0  0  0  0
  -28.1420   33.1210    7.2870 C   0  0  0  0  0  3  0  0  0  0  0  0
  -27.2640   33.7750    6.4030 C   0  0  0  0  0  3  0  0  0  0  0  0
  -26.3310   34.8100    6.9040 C   0  0  0  0  0  0  0  0  0  0  0  0
  -26.3170   35.1380    8.2880 C   0  0  0  0  0  0  0  0  0  0  0  0
  -27.2370   34.4390    9.2200 C   0  0  0  0  0  3  0  0  0  0  0  0
  -25.4750   35.4530    6.0070 O   0  0  0  0  0  0  0  0  0  0  0  0
  -25.4940   35.2270    5.0970 H   0  0  0  0  0  0  0  0  0  0  0  0
  -25.4310   36.1190    8.7440 O   0  0  0  0  0  0  0  0  0  0  0  0
  -24.8580   36.5500    8.1410 H   0  0  0  0  0  0  0  0  0  0  0  0
  -34.5460   29.8350    8.9580 O   0  0  0  0  0  0  0  0  0  0  0  0
  -35.2090   29.3610    9.4210 H   0  0  0  0  0  0  0  0  0  0  0  0
  -32.0270   30.3010   13.1840 O   0  0  0  0  0  0  0  0  0  0  0  0
  -32.6890   29.8260   13.6460 H   0  0  0  0  0  0  0  0  0  0  0  0
  -27.8120   33.0920   11.5140 O   0  0  0  0  0  0  0  0  0  0  0  0
  -27.6620   32.9820   12.4330 H   0  0  0  0  0  0  0  0  0  0  0  0
  1  2  1  0  0  0  0
  2  3  2  0  0  0  0
  3 24  1  0  0  0  0
  4  7  1  0  0  0  0
  4  3  1  0  0  0  0
  5  4  2  0  0  0  0
  6  1  2  0  0  0  0
  6  5  1  0  0  0  0
  7 11  2  0  0  0  0
  8 26  1  0  0  0  0
  8  7  1  0  0  0  0
  9  8  2  0  0  0  0
 10  9  1  0  0  0  0
 10  5  1  0  0  0  0
 12 17  1  0  0  0  0
 12  9  1  0  0  0  0
 13 12  2  0  0  0  0
 14 15  2  0  0  0  0
 14 13  1  0  0  0  0
 15 16  1  0  0  0  0
 16 20  1  0  0  0  0
 16 17  2  0  0  0  0
 18 15  1  0  0  0  0
 19 18  1  0  0  0  0
 21 20  1  0  0  0  0
 22 23  1  0  0  0  0
 22  1  1  0  0  0  0
 24 25  1  0  0  0  0
 26 27  1  0  0  0  0
M  END
>  <minimizedAffinity>
-9.17235279

$$$$

 OpenBabel10112400473D

 27 29  0  0  0  0  0  0  0  0999 V2000
  -27.0330   34.0550    6.2860 C   0  0  0  0  0  0  0  0  0  0  0  0
  -26.3480   34.4470    7.5400 C   0  0  0  0  0  3  0  0  0  0  0  0
  -26.7890   33.9300    8.7940 C   0  0  0  0  0  0  0  0  0  0  0  0
  -27.9410   32.9950    8.8230 C   0  0  0  0  0  0  0  0  0  0  0  0
  -28.5930   32.6210    7.6470 C   0  0  0  0  0  0  0  0  0  0  0  0
  -28.1360   33.1580    6.3450 C   0  0  0  0  0  3  0  0  0  0  0  0
  -28.4720   32.4000   10.1010 C   0  0  0  0  0  0  0  0  0  0  0  0
  -29.6170   31.4740   10.0090 C   0  0  0  0  0  0  0  0  0  0  0  0
  -30.1640   31.2060    8.8140 C   0  0  0  0  0  0  0  0  0  0  0  0
  -29.6790   31.7420    7.6790 O   0  0  0  0  0  0  0  0  0  0  0  0
  -27.9880   32.6580   11.1910 O   0  0  0  0  0  0  0  0  0  0  0  0
  -31.3490   30.2750    8.6590 C   0  0  0  0  0  0  0  0  0  0  0  0
  -31.1290   28.9760    7.9750 C   0  0  0  0  0  3  0  0  0  0  0  0
  -32.1890   28.0670    7.8050 C   0  0  0  0  0  3  0  0  0  0  0  0
  -33.5430   28.3930    8.3070 C   0  0  0  0  0  0  0  0  0  0  0  0
  -33.7740   29.6360    8.9590 C   0  0  0  0  0  0  0  0  0  0  0  0
  -32.6560   30.5990    9.1280 C   0  0  0  0  0  3  0  0  0  0  0  0
  -34.5780   27.4720    8.1350 O   0  0  0  0  0  0  0  0  0  0  0  0
  -34.4130   26.6560    7.7040 H   0  0  0  0  0  0  0  0  0  0  0  0
  -35.0580   29.9290    9.4290 O   0  0  0  0  0  0  0  0  0  0  0  0
  -35.7520   29.3090    9.3140 H   0  0  0  0  0  0  0  0  0  0  0  0
  -26.5810   34.5760    5.0720 O   0  0  0  0  0  0  0  0  0  0  0  0
  -25.8520   35.1660    5.0580 H   0  0  0  0  0  0  0  0  0  0  0  0
  -26.1570   34.2870    9.9870 O   0  0  0  0  0  0  0  0  0  0  0  0
  -25.4290   34.8770    9.9730 H   0  0  0  0  0  0  0  0  0  0  0  0
  -30.0990   30.8910   11.1160 O   0  0  0  0  0  0  0  0  0  0  0  0
  -29.7170   31.0800   11.9510 H   0  0  0  0  0  0  0  0  0  0  0  0
  1  6  2  0  0  0  0
  1  2  1  0  0  0  0
  2  3  2  0  0  0  0
  3  4  1  0  0  0  0
  3 24  1  0  0  0  0
  4  7  1  0  0  0  0
  5 10  1  0  0  0  0
  5  4  2  0  0  0  0
  6  5  1  0  0  0  0
  7 11  2  0  0  0  0
  8  7  1  0  0  0  0
  8 26  1  0  0  0  0
  9  8  2  0  0  0  0
 10  9  1  0  0  0  0
 12  9  1  0  0  0  0
 12 17  1  0  0  0  0
 13 12  2  0  0  0  0
 14 13  1  0  0  0  0
 14 15  2  0  0  0  0
 15 16  1  0  0  0  0
 16 17  2  0  0  0  0
 16 20  1  0  0  0  0
 18 15  1  0  0  0  0
 19 18  1  0  0  0  0
 21 20  1  0  0  0  0
 22  1  1  0  0  0  0
 23 22  1  0  0  0  0
 25 24  1  0  0  0  0
 26 27  1  0  0  0  0
M  END
>  <minimizedAffinity>
-9.08921051

$$$$

 OpenBabel10112400473D

 27 29  0  0  0  0  0  0  0  0999 V2000
  -36.0840   26.6030    5.9230 C   0  0  0  0  0  0  0  0  0  0  0  0
  -36.4280   25.4730    5.0290 C   0  0  0  0  0  3  0  0  0  0  0  0
  -37.5460   24.6390    5.3200 C   0  0  0  0  0  0  0  0  0  0  0  0
  -38.3590   24.9180    6.5300 C   0  0  0  0  0  0  0  0  0  0  0  0
  -38.0420   25.9800    7.3780 C   0  0  0  0  0  0  0  0  0  0  0  0
  -36.8800   26.8470    7.0760 C   0  0  0  0  0  3  0  0  0  0  0  0
  -39.5570   24.0890    6.9130 C   0  0  0  0  0  0  0  0  0  0  0  0
  -40.2970   24.4660    8.1320 C   0  0  0  0  0  0  0  0  0  0  0  0
  -39.8790   25.5050    8.8720 C   0  0  0  0  0  0  0  0  0  0  0  0
  -38.8090   26.2390    8.5180 O   0  0  0  0  0  0  0  0  0  0  0  0
  -39.9260   23.1320    6.2520 O   0  0  0  0  0  0  0  0  0  0  0  0
  -40.5900   25.9290   10.1410 C   0  0  0  0  0  0  0  0  0  0  0  0
  -39.7910   26.0160   11.3890 C   0  0  0  0  0  3  0  0  0  0  0  0
  -40.3920   26.4070   12.5990 C   0  0  0  0  0  3  0  0  0  0  0  0
  -41.8340   26.7400   12.6450 C   0  0  0  0  0  0  0  0  0  0  0  0
  -42.6170   26.6550   11.4600 C   0  0  0  0  0  0  0  0  0  0  0  0
  -41.9820   26.2310   10.1870 C   0  0  0  0  0  3  0  0  0  0  0  0
  -42.4080   27.1350   13.8550 O   0  0  0  0  0  0  0  0  0  0  0  0
  -41.8810   27.1870   14.6290 H   0  0  0  0  0  0  0  0  0  0  0  0
  -43.9770   26.9740   11.5200 O   0  0  0  0  0  0  0  0  0  0  0  0
  -44.3600   27.2400   12.3330 H   0  0  0  0  0  0  0  0  0  0  0  0
  -34.9830   27.4050    5.6140 O   0  0  0  0  0  0  0  0  0  0  0  0
  -34.4730   27.2260    4.8490 H   0  0  0  0  0  0  0  0  0  0  0  0
  -37.8870   23.5680    4.4890 O   0  0  0  0  0  0  0  0  0  0  0  0
  -37.3760   23.3890    3.7250 H   0  0  0  0  0  0  0  0  0  0  0  0
  -41.3910   23.7800    8.4920 O   0  0  0  0  0  0  0  0  0  0  0  0
  -41.6810   23.0540    7.9750 H   0  0  0  0  0  0  0  0  0  0  0  0
  1  6  1  0  0  0  0
  2  3  1  0  0  0  0
  2  1  2  0  0  0  0
  3  4  2  0  0  0  0
  4  7  1  0  0  0  0
  4  5  1  0  0  0  0
  5 10  1  0  0  0  0
  6  5  2  0  0  0  0
  7  8  1  0  0  0  0
  8 26  1  0  0  0  0
  8  9  2  0  0  0  0
  9 12  1  0  0  0  0
 10  9  1  0  0  0  0
 11  7  2  0  0  0  0
 12 17  2  0  0  0  0
 12 13  1  0  0  0  0
 13 14  2  0  0  0  0
 14 15  1  0  0  0  0
 15 18  1  0  0  0  0
 16 20  1  0  0  0  0
 16 15  2  0  0  0  0
 17 16  1  0  0  0  0
 18 19  1  0  0  0  0
 20 21  1  0  0  0  0
 22  1  1  0  0  0  0
 23 22  1  0  0  0  0
 24  3  1  0  0  0  0
 25 24  1  0  0  0  0
 27 26  1  0  0  0  0
M  END
>  <minimizedAffinity>
-8.80772495

$$$$

 OpenBabel10112400473D

 27 29  0  0  0  0  0  0  0  0999 V2000
  -25.9680   35.3080    9.2090 C   0  0  0  0  0  0  0  0  0  0  0  0
  -25.8250   35.4850   10.6730 C   0  0  0  0  0  3  0  0  0  0  0  0
  -26.6670   34.7660   11.5710 C   0  0  0  0  0  0  0  0  0  0  0  0
  -27.6860   33.8380   11.0190 C   0  0  0  0  0  0  0  0  0  0  0  0
  -27.8270   33.6660    9.6410 C   0  0  0  0  0  0  0  0  0  0  0  0
  -26.9530   34.4130    8.7070 C   0  0  0  0  0  3  0  0  0  0  0  0
  -28.6150   33.0380   11.8930 C   0  0  0  0  0  0  0  0  0  0  0  0
  -29.5810   32.1390   11.2340 C   0  0  0  0  0  0  0  0  0  0  0  0
  -29.6250   32.0740    9.8940 C   0  0  0  0  0  0  0  0  0  0  0  0
  -28.7890   32.7930    9.1240 O   0  0  0  0  0  0  0  0  0  0  0  0
  -28.5890   33.1110   13.1110 O   0  0  0  0  0  0  0  0  0  0  0  0
  -30.6060   31.1810    9.1620 C   0  0  0  0  0  0  0  0  0  0  0  0
  -31.9350   31.7450    8.8160 C   0  0  0  0  0  3  0  0  0  0  0  0
  -32.8880   30.9670    8.1330 C   0  0  0  0  0  3  0  0  0  0  0  0
  -32.5770   29.5710    7.7470 C   0  0  0  0  0  0  0  0  0  0  0  0
  -31.3110   29.0120    8.0770 C   0  0  0  0  0  0  0  0  0  0  0  0
  -30.3120   29.8320    8.8080 C   0  0  0  0  0  3  0  0  0  0  0  0
  -33.5340   28.8200    7.0620 O   0  0  0  0  0  0  0  0  0  0  0  0
  -34.3650   29.2000    6.8500 H   0  0  0  0  0  0  0  0  0  0  0  0
  -31.0330   27.6940    7.7040 O   0  0  0  0  0  0  0  0  0  0  0  0
  -31.6760   27.1910    7.2430 H   0  0  0  0  0  0  0  0  0  0  0  0
  -25.1300   36.0250    8.3510 O   0  0  0  0  0  0  0  0  0  0  0  0
  -24.4880   36.6090    8.7040 H   0  0  0  0  0  0  0  0  0  0  0  0
  -26.5490   34.9190   12.9540 O   0  0  0  0  0  0  0  0  0  0  0  0
  -25.9070   35.5040   13.3070 H   0  0  0  0  0  0  0  0  0  0  0  0
  -30.4030   31.3800   11.9720 O   0  0  0  0  0  0  0  0  0  0  0  0
  -30.3720   31.4270   12.9080 H   0  0  0  0  0  0  0  0  0  0  0  0
  1  2  1  0  0  0  0
  2  3  2  0  0  0  0
  3 24  1  0  0  0  0
  4  3  1  0  0  0  0
  4  7  1  0  0  0  0
  5  4  2  0  0  0  0
  6  1  2  0  0  0  0
  6  5  1  0  0  0  0
  7 11  2  0  0  0  0
  8  7  1  0  0  0  0
  8 26  1  0  0  0  0
  9  8  2  0  0  0  0
 10  5  1  0  0  0  0
 10  9  1  0  0  0  0
 12  9  1  0  0  0  0
 13 12  1  0  0  0  0
 14 13  2  0  0  0  0
 15 16  2  0  0  0  0
 15 14  1  0  0  0  0
 16 17  1  0  0  0  0
 17 12  2  0  0  0  0
 18 15  1  0  0  0  0
 19 18  1  0  0  0  0
 20 16  1  0  0  0  0
 21 20  1  0  0  0  0
 22 23  1  0  0  0  0
 22  1  1  0  0  0  0
 24 25  1  0  0  0  0
 26 27  1  0  0  0  0
M  END
>  <minimizedAffinity>
-8.73262119

$$$$

 OpenBabel10112400473D

 27 29  0  0  0  0  0  0  0  0999 V2000
  -30.9420   30.6850    8.1190 C   0  0  0  0  0  0  0  0  0  0  0  0
  -31.1700   30.6460    9.5830 C   0  0  0  0  0  3  0  0  0  0  0  0
  -32.1710   29.7950   10.1340 C   0  0  0  0  0  0  0  0  0  0  0  0
  -32.9810   28.9490    9.2220 C   0  0  0  0  0  0  0  0  0  0  0  0
  -32.7750   28.9800    7.8420 C   0  0  0  0  0  0  0  0  0  0  0  0
  -31.7340   29.8650    7.2680 C   0  0  0  0  0  3  0  0  0  0  0  0
  -34.0590   28.0200    9.7170 C   0  0  0  0  0  0  0  0  0  0  0  0
  -34.7930   27.2200    8.7200 C   0  0  0  0  0  0  0  0  0  0  0  0
  -34.5070   27.3520    7.4160 C   0  0  0  0  0  0  0  0  0  0  0  0
  -33.5410   28.1840    6.9860 O   0  0  0  0  0  0  0  0  0  0  0  0
  -34.3330   27.9130   10.9020 O   0  0  0  0  0  0  0  0  0  0  0  0
  -35.2380   26.5680    6.3450 C   0  0  0  0  0  0  0  0  0  0  0  0
  -34.4570   25.5950    5.5410 C   0  0  0  0  0  3  0  0  0  0  0  0
  -35.0800   24.8340    4.5350 C   0  0  0  0  0  3  0  0  0  0  0  0
  -36.5270   24.9920    4.2640 C   0  0  0  0  0  0  0  0  0  0  0  0
  -37.2890   25.9250    5.0200 C   0  0  0  0  0  0  0  0  0  0  0  0
  -36.6270   26.7350    6.0740 C   0  0  0  0  0  3  0  0  0  0  0  0
  -37.1270   24.2200    3.2670 O   0  0  0  0  0  0  0  0  0  0  0  0
  -36.6130   23.6080    2.7750 H   0  0  0  0  0  0  0  0  0  0  0  0
  -38.6550   26.0620    4.7530 O   0  0  0  0  0  0  0  0  0  0  0  0
  -39.0560   25.5410    4.0840 H   0  0  0  0  0  0  0  0  0  0  0  0
  -29.9540   31.5280    7.6060 O   0  0  0  0  0  0  0  0  0  0  0  0
  -29.4450   32.0600    8.1850 H   0  0  0  0  0  0  0  0  0  0  0  0
  -32.4010   29.7440   11.5110 O   0  0  0  0  0  0  0  0  0  0  0  0
  -31.8920   30.2760   12.0900 H   0  0  0  0  0  0  0  0  0  0  0  0
  -35.7350   26.3520    9.1170 O   0  0  0  0  0  0  0  0  0  0  0  0
  -35.9350   26.2610   10.0290 H   0  0  0  0  0  0  0  0  0  0  0  0
  1  2  1  0  0  0  0
  2  3  2  0  0  0  0
  3 24  1  0  0  0  0
  4  7  1  0  0  0  0
  4  3  1  0  0  0  0
  5  4  2  0  0  0  0
  6  5  1  0  0  0  0
  6  1  2  0  0  0  0
  7 11  2  0  0  0  0
  8 26  1  0  0  0  0
  8  7  1  0  0  0  0
  9  8  2  0  0  0  0
 10  9  1  0  0  0  0
 10  5  1  0  0  0  0
 12  9  1  0  0  0  0
 13 12  2  0  0  0  0
 14 13  1  0  0  0  0
 15 14  2  0  0  0  0
 15 16  1  0  0  0  0
 16 17  2  0  0  0  0
 17 12  1  0  0  0  0
 18 15  1  0  0  0  0
 19 18  1  0  0  0  0
 20 16  1  0  0  0  0
 21 20  1  0  0  0  0
 22  1  1  0  0  0  0
 22 23  1  0  0  0  0
 24 25  1  0  0  0  0
 26 27  1  0  0  0  0
M  END
>  <minimizedAffinity>
-8.66915894

$$$$

 OpenBabel10112400473D

 27 29  0  0  0  0  0  0  0  0999 V2000
  -38.5660   26.5130    4.4890 C   0  0  0  0  0  0  0  0  0  0  0  0
  -37.2300   26.6070    3.8540 C   0  0  0  0  0  3  0  0  0  0  0  0
  -36.0600   26.7430    4.6570 C   0  0  0  0  0  0  0  0  0  0  0  0
  -36.1990   26.7890    6.1330 C   0  0  0  0  0  0  0  0  0  0  0  0
  -37.4530   26.7020    6.7390 C   0  0  0  0  0  0  0  0  0  0  0  0
  -38.6700   26.5610    5.9070 C   0  0  0  0  0  3  0  0  0  0  0  0
  -35.0170   26.9290    7.0570 C   0  0  0  0  0  0  0  0  0  0  0  0
  -35.2740   26.9530    8.5090 C   0  0  0  0  0  0  0  0  0  0  0  0
  -36.5330   26.8740    8.9660 C   0  0  0  0  0  0  0  0  0  0  0  0
  -37.5800   26.7470    8.1310 O   0  0  0  0  0  0  0  0  0  0  0  0
  -33.8730   27.0210    6.6420 O   0  0  0  0  0  0  0  0  0  0  0  0
  -36.8590   26.9090   10.4450 C   0  0  0  0  0  0  0  0  0  0  0  0
  -36.9910   25.6140   11.1580 C   0  0  0  0  0  3  0  0  0  0  0  0
  -37.2880   25.5800   12.5330 C   0  0  0  0  0  3  0  0  0  0  0  0
  -37.4730   26.8390   13.2900 C   0  0  0  0  0  0  0  0  0  0  0  0
  -37.3570   28.0890   12.6210 C   0  0  0  0  0  0  0  0  0  0  0  0
  -37.0550   28.1220   11.1680 C   0  0  0  0  0  3  0  0  0  0  0  0
  -37.7590   26.7820   14.6560 O   0  0  0  0  0  0  0  0  0  0  0  0
  -37.8330   25.9520   15.0850 H   0  0  0  0  0  0  0  0  0  0  0  0
  -37.5340   29.2690   13.3510 O   0  0  0  0  0  0  0  0  0  0  0  0
  -37.7240   29.2290   14.2680 H   0  0  0  0  0  0  0  0  0  0  0  0
  -39.6960   26.3800    3.6790 O   0  0  0  0  0  0  0  0  0  0  0  0
  -39.6040   26.3500    2.7470 H   0  0  0  0  0  0  0  0  0  0  0  0
  -34.7910   26.8330    4.0780 O   0  0  0  0  0  0  0  0  0  0  0  0
  -34.6990   26.8050    3.1460 H   0  0  0  0  0  0  0  0  0  0  0  0
  -34.2500   27.0390    9.3710 O   0  0  0  0  0  0  0  0  0  0  0  0
  -33.3700   27.0950    9.0500 H   0  0  0  0  0  0  0  0  0  0  0  0
  1  6  1  0  0  0  0
  2  1  2  0  0  0  0
  2  3  1  0  0  0  0
  3  4  2  0  0  0  0
  4  5  1  0  0  0  0
  4  7  1  0  0  0  0
  5 10  1  0  0  0  0
  6  5  2  0  0  0  0
  7  8  1  0  0  0  0
  8  9  2  0  0  0  0
  8 26  1  0  0  0  0
  9 12  1  0  0  0  0
 10  9  1  0  0  0  0
 11  7  2  0  0  0  0
 12 13  2  0  0  0  0
 12 17  1  0  0  0  0
 13 14  1  0  0  0  0
 14 15  2  0  0  0  0
 15 18  1  0  0  0  0
 16 15  1  0  0  0  0
 16 20  1  0  0  0  0
 17 16  2  0  0  0  0
 18 19  1  0  0  0  0
 20 21  1  0  0  0  0
 22  1  1  0  0  0  0
 23 22  1  0  0  0  0
 24  3  1  0  0  0  0
 25 24  1  0  0  0  0
 27 26  1  0  0  0  0
M  END
>  <minimizedAffinity>
-8.39887142

$$$$

 OpenBabel10112400473D

 27 29  0  0  0  0  0  0  0  0999 V2000
  -28.4560   21.7890   -5.6480 C   0  0  0  0  0  0  0  0  0  0  0  0
  -29.3510   22.9510   -5.8570 C   0  0  0  0  0  3  0  0  0  0  0  0
  -30.7520   22.8320   -5.6270 C   0  0  0  0  0  0  0  0  0  0  0  0
  -31.3000   21.5290   -5.1750 C   0  0  0  0  0  0  0  0  0  0  0  0
  -30.4650   20.4290   -4.9760 C   0  0  0  0  0  0  0  0  0  0  0  0
  -29.0080   20.5520   -5.2160 C   0  0  0  0  0  3  0  0  0  0  0  0
  -32.7670   21.3130   -4.9060 C   0  0  0  0  0  0  0  0  0  0  0  0
  -33.1970   19.9770   -4.4510 C   0  0  0  0  0  0  0  0  0  0  0  0
  -32.2920   18.9960   -4.3120 C   0  0  0  0  0  0  0  0  0  0  0  0
  -30.9850   19.2020   -4.5530 O   0  0  0  0  0  0  0  0  0  0  0  0
  -33.5930   22.1990   -5.0510 O   0  0  0  0  0  0  0  0  0  0  0  0
  -32.6770   17.6020   -3.8620 C   0  0  0  0  0  0  0  0  0  0  0  0
  -33.0430   16.6110   -4.9050 C   0  0  0  0  0  3  0  0  0  0  0  0
  -33.4050   15.2990   -4.5520 C   0  0  0  0  0  3  0  0  0  0  0  0
  -33.4270   14.8850   -3.1300 C   0  0  0  0  0  0  0  0  0  0  0  0
  -33.0860   15.8230   -2.1170 C   0  0  0  0  0  0  0  0  0  0  0  0
  -32.7150   17.2110   -2.4920 C   0  0  0  0  0  3  0  0  0  0  0  0
  -33.7810   13.5750   -2.8030 O   0  0  0  0  0  0  0  0  0  0  0  0
  -34.0040   12.9660   -3.4800 H   0  0  0  0  0  0  0  0  0  0  0  0
  -33.1100   15.4170   -0.7790 O   0  0  0  0  0  0  0  0  0  0  0  0
  -33.3470   14.5360   -0.5610 H   0  0  0  0  0  0  0  0  0  0  0  0
  -27.0860   21.9340   -5.8810 O   0  0  0  0  0  0  0  0  0  0  0  0
  -26.7440   22.7590   -6.1660 H   0  0  0  0  0  0  0  0  0  0  0  0
  -31.6130   23.9150   -5.8180 O   0  0  0  0  0  0  0  0  0  0  0  0
  -31.2710   24.7400   -6.1030 H   0  0  0  0  0  0  0  0  0  0  0  0
  -34.4870   19.7490   -4.1640 O   0  0  0  0  0  0  0  0  0  0  0  0
  -35.1180   20.4350   -4.2630 H   0  0  0  0  0  0  0  0  0  0  0  0
  1  6  1  0  0  0  0
  2  1  2  0  0  0  0
  2  3  1  0  0  0  0
  3  4  2  0  0  0  0
  4  5  1  0  0  0  0
  4  7  1  0  0  0  0
  5 10  1  0  0  0  0
  6  5  2  0  0  0  0
  7  8  1  0  0  0  0
  8  9  2  0  0  0  0
  8 26  1  0  0  0  0
  9 12  1  0  0  0  0
 10  9  1  0  0  0  0
 11  7  2  0  0  0  0
 12 17  1  0  0  0  0
 13 14  1  0  0  0  0
 13 12  2  0  0  0  0
 14 15  2  0  0  0  0
 15 18  1  0  0  0  0
 15 16  1  0  0  0  0
 16 20  1  0  0  0  0
 17 16  2  0  0  0  0
 19 18  1  0  0  0  0
 20 21  1  0  0  0  0
 22  1  1  0  0  0  0
 23 22  1  0  0  0  0
 24  3  1  0  0  0  0
 25 24  1  0  0  0  0
 27 26  1  0  0  0  0
M  END
>  <minimizedAffinity>
-8.24679565

$$$$

 OpenBabel10112400473D

 27 29  0  0  0  0  0  0  0  0999 V2000
  -30.4630   31.3840   15.8310 C   0  0  0  0  0  0  0  0  0  0  0  0
  -31.5680   30.5660   15.2790 C   0  0  0  0  0  3  0  0  0  0  0  0
  -31.7990   30.5230   13.8730 C   0  0  0  0  0  0  0  0  0  0  0  0
  -30.9190   31.3080   12.9720 C   0  0  0  0  0  0  0  0  0  0  0  0
  -29.8760   32.0820   13.4830 C   0  0  0  0  0  0  0  0  0  0  0  0
  -29.6350   32.1280   14.9440 C   0  0  0  0  0  3  0  0  0  0  0  0
  -31.0900   31.3200   11.4750 C   0  0  0  0  0  0  0  0  0  0  0  0
  -30.1490   32.1280   10.6780 C   0  0  0  0  0  0  0  0  0  0  0  0
  -29.1930   32.8410   11.2950 C   0  0  0  0  0  0  0  0  0  0  0  0
  -29.0500   32.8210   12.6320 O   0  0  0  0  0  0  0  0  0  0  0  0
  -31.9700   30.6870   10.9150 O   0  0  0  0  0  0  0  0  0  0  0  0
  -28.2080   33.7020   10.5300 C   0  0  0  0  0  0  0  0  0  0  0  0
  -27.2510   33.0230    9.6220 C   0  0  0  0  0  3  0  0  0  0  0  0
  -26.3150   33.7670    8.8820 C   0  0  0  0  0  3  0  0  0  0  0  0
  -26.2710   35.2420    8.9970 C   0  0  0  0  0  0  0  0  0  0  0  0
  -27.1770   35.9100    9.8680 C   0  0  0  0  0  0  0  0  0  0  0  0
  -28.1570   35.1210   10.6570 C   0  0  0  0  0  3  0  0  0  0  0  0
  -25.3400   35.9620    8.2460 O   0  0  0  0  0  0  0  0  0  0  0  0
  -24.7480   35.5100    7.6750 H   0  0  0  0  0  0  0  0  0  0  0  0
  -27.1240   37.3040    9.9650 O   0  0  0  0  0  0  0  0  0  0  0  0
  -26.4990   37.7850    9.4590 H   0  0  0  0  0  0  0  0  0  0  0  0
  -30.2580   31.4090   17.2120 O   0  0  0  0  0  0  0  0  0  0  0  0
  -30.8160   30.9110   17.7770 H   0  0  0  0  0  0  0  0  0  0  0  0
  -32.8360   29.7580   13.3320 O   0  0  0  0  0  0  0  0  0  0  0  0
  -33.3940   29.2610   13.8980 H   0  0  0  0  0  0  0  0  0  0  0  0
  -30.2390   32.1400    9.3410 O   0  0  0  0  0  0  0  0  0  0  0  0
  -30.9080   31.6420    8.9110 H   0  0  0  0  0  0  0  0  0  0  0  0
  1 22  1  0  0  0  0
  2  1  1  0  0  0  0
  3  2  2  0  0  0  0
  4  5  2  0  0  0  0
  4  3  1  0  0  0  0
  5  6  1  0  0  0  0
  6  1  2  0  0  0  0
  7  4  1  0  0  0  0
  8  9  2  0  0  0  0
  8  7  1  0  0  0  0
  9 10  1  0  0  0  0
 10  5  1  0  0  0  0
 11  7  2  0  0  0  0
 12 17  1  0  0  0  0
 12  9  1  0  0  0  0
 13 12  2  0  0  0  0
 14 15  2  0  0  0  0
 14 13  1  0  0  0  0
 15 16  1  0  0  0  0
 16 20  1  0  0  0  0
 16 17  2  0  0  0  0
 18 15  1  0  0  0  0
 19 18  1  0  0  0  0
 21 20  1  0  0  0  0
 22 23  1  0  0  0  0
 24  3  1  0  0  0  0
 24 25  1  0  0  0  0
 26  8  1  0  0  0  0
 27 26  1  0  0  0  0
M  END
>  <minimizedAffinity>
-8.16825867

$$$$
