
 OpenBabel10112400453D

 27 29  0  0  0  0  0  0  0  0999 V2000
  -59.5670   24.0630   14.2750 C   0  0  0  0  0  0  0  0  0  0  0  0
  -61.0080   24.3190   14.0470 C   0  0  0  0  0  3  0  0  0  0  0  0
  -61.8640   24.6450   15.1390 C   0  0  0  0  0  0  0  0  0  0  0  0
  -61.2910   24.7240   16.5060 C   0  0  0  0  0  0  0  0  0  0  0  0
  -59.9340   24.4830   16.7310 C   0  0  0  0  0  0  0  0  0  0  0  0
  -59.0440   24.1440   15.5960 C   0  0  0  0  0  3  0  0  0  0  0  0
  -62.1200   25.0620   17.7170 C   0  0  0  0  0  0  0  0  0  0  0  0
  -61.4410   25.1220   19.0250 C   0  0  0  0  0  0  0  0  0  0  0  0
  -60.1290   24.8560   19.1090 C   0  0  0  0  0  0  0  0  0  0  0  0
  -59.3980   24.5570   18.0190 O   0  0  0  0  0  0  0  0  0  0  0  0
  -63.3180   25.2860   17.6450 O   0  0  0  0  0  0  0  0  0  0  0  0
  -59.3810   24.8870   20.4260 C   0  0  0  0  0  0  0  0  0  0  0  0
  -58.8160   26.1840   20.8740 C   0  0  0  0  0  3  0  0  0  0  0  0
  -58.1150   26.2790   22.0900 C   0  0  0  0  0  3  0  0  0  0  0  0
  -57.9310   25.0830   22.9430 C   0  0  0  0  0  0  0  0  0  0  0  0
  -58.4600   23.8300   22.5270 C   0  0  0  0  0  0  0  0  0  0  0  0
  -59.1900   23.7310   21.2370 C   0  0  0  0  0  3  0  0  0  0  0  0
  -57.2400   25.2020   24.1510 O   0  0  0  0  0  0  0  0  0  0  0  0
  -56.8960   26.0330   24.4140 H   0  0  0  0  0  0  0  0  0  0  0  0
  -58.2800   22.7100   23.3450 O   0  0  0  0  0  0  0  0  0  0  0  0
  -57.8170   22.7920   24.1550 H   0  0  0  0  0  0  0  0  0  0  0  0
  -58.7510   23.7460   13.1870 O   0  0  0  0  0  0  0  0  0  0  0  0
  -59.1160   23.6980   12.3250 H   0  0  0  0  0  0  0  0  0  0  0  0
  -63.2250   24.8900   14.9450 O   0  0  0  0  0  0  0  0  0  0  0  0
  -63.5910   24.8410   14.0840 H   0  0  0  0  0  0  0  0  0  0  0  0
  -62.1320   25.4560   20.1250 O   0  0  0  0  0  0  0  0  0  0  0  0
  -63.0490   25.6410   20.0650 H   0  0  0  0  0  0  0  0  0  0  0  0
  1  6  1  0  0  0  0
  2  1  2  0  0  0  0
  2  3  1  0  0  0  0
  3  4  2  0  0  0  0
  4  5  1  0  0  0  0
  4  7  1  0  0  0  0
  5 10  1  0  0  0  0
  6  5  2  0  0  0  0
  7  8  1  0  0  0  0
  8  9  2  0  0  0  0
  8 26  1  0  0  0  0
  9 12  1  0  0  0  0
 10  9  1  0  0  0  0
 11  7  2  0  0  0  0
 12 13  2  0  0  0  0
 12 17  1  0  0  0  0
 13 14  1  0  0  0  0
 14 15  2  0  0  0  0
 15 18  1  0  0  0  0
 16 15  1  0  0  0  0
 16 20  1  0  0  0  0
 17 16  2  0  0  0  0
 18 19  1  0  0  0  0
 20 21  1  0  0  0  0
 22  1  1  0  0  0  0
 23 22  1  0  0  0  0
 24  3  1  0  0  0  0
 25 24  1  0  0  0  0
 27 26  1  0  0  0  0
M  END
>  <minimizedAffinity>
-4.98059368

$$$$

 OpenBabel10112400453D

 27 29  0  0  0  0  0  0  0  0999 V2000
  -58.1370   26.5600   23.3330 C   0  0  0  0  0  0  0  0  0  0  0  0
  -58.2330   25.2920   24.0930 C   0  0  0  0  0  3  0  0  0  0  0  0
  -58.6920   24.1030   23.4540 C   0  0  0  0  0  0  0  0  0  0  0  0
  -59.0710   24.1550   22.0200 C   0  0  0  0  0  0  0  0  0  0  0  0
  -58.9850   25.3450   21.2970 C   0  0  0  0  0  0  0  0  0  0  0  0
  -58.5080   26.5810   21.9600 C   0  0  0  0  0  3  0  0  0  0  0  0
  -59.5650   22.9480   21.2660 C   0  0  0  0  0  0  0  0  0  0  0  0
  -59.9040   23.1140   19.8400 C   0  0  0  0  0  0  0  0  0  0  0  0
  -59.7890   24.3210   19.2640 C   0  0  0  0  0  0  0  0  0  0  0  0
  -59.3450   25.3910   19.9480 O   0  0  0  0  0  0  0  0  0  0  0  0
  -59.6880   21.8540   21.7940 O   0  0  0  0  0  0  0  0  0  0  0  0
  -60.1360   24.5550   17.8080 C   0  0  0  0  0  0  0  0  0  0  0  0
  -59.0400   24.4780   16.8100 C   0  0  0  0  0  3  0  0  0  0  0  0
  -59.3000   24.6830   15.4430 C   0  0  0  0  0  3  0  0  0  0  0  0
  -60.6740   24.9780   14.9780 C   0  0  0  0  0  0  0  0  0  0  0  0
  -61.7360   25.0630   15.9210 C   0  0  0  0  0  0  0  0  0  0  0  0
  -61.4570   24.8570   17.3650 C   0  0  0  0  0  3  0  0  0  0  0  0
  -60.9110   25.1680   13.6150 O   0  0  0  0  0  0  0  0  0  0  0  0
  -60.2030   25.1100   13.0040 H   0  0  0  0  0  0  0  0  0  0  0  0
  -63.0290   25.3400   15.4650 O   0  0  0  0  0  0  0  0  0  0  0  0
  -63.1860   25.4670   14.5500 H   0  0  0  0  0  0  0  0  0  0  0  0
  -57.6830   27.7110   23.9830 O   0  0  0  0  0  0  0  0  0  0  0  0
  -57.4440   27.6740   24.8890 H   0  0  0  0  0  0  0  0  0  0  0  0
  -58.7890   22.8970   24.1530 O   0  0  0  0  0  0  0  0  0  0  0  0
  -58.5510   22.8600   25.0580 H   0  0  0  0  0  0  0  0  0  0  0  0
  -60.3120   22.0600   19.1200 O   0  0  0  0  0  0  0  0  0  0  0  0
  -60.3920   21.2180   19.5240 H   0  0  0  0  0  0  0  0  0  0  0  0
  1 22  1  0  0  0  0
  1  2  1  0  0  0  0
  3  2  2  0  0  0  0
  3 24  1  0  0  0  0
  4  3  1  0  0  0  0
  5  6  1  0  0  0  0
  5  4  2  0  0  0  0
  6  1  2  0  0  0  0
  7 11  2  0  0  0  0
  7  4  1  0  0  0  0
  8  7  1  0  0  0  0
  9  8  2  0  0  0  0
  9 10  1  0  0  0  0
 10  5  1  0  0  0  0
 12  9  1  0  0  0  0
 13 12  2  0  0  0  0
 14 13  1  0  0  0  0
 15 14  2  0  0  0  0
 15 16  1  0  0  0  0
 16 17  2  0  0  0  0
 17 12  1  0  0  0  0
 18 15  1  0  0  0  0
 19 18  1  0  0  0  0
 20 16  1  0  0  0  0
 21 20  1  0  0  0  0
 22 23  1  0  0  0  0
 24 25  1  0  0  0  0
 26 27  1  0  0  0  0
 26  8  1  0  0  0  0
M  END
>  <minimizedAffinity>
-4.9113698

$$$$

 OpenBabel10112400453D

 27 29  0  0  0  0  0  0  0  0999 V2000
  -58.4710   25.3500   21.7830 C   0  0  0  0  0  0  0  0  0  0  0  0
  -58.8450   24.0480   22.3840 C   0  0  0  0  0  3  0  0  0  0  0  0
  -59.5390   23.0720   21.6110 C   0  0  0  0  0  0  0  0  0  0  0  0
  -59.8800   23.3770   20.2000 C   0  0  0  0  0  0  0  0  0  0  0  0
  -59.5330   24.6010   19.6270 C   0  0  0  0  0  0  0  0  0  0  0  0
  -58.8120   25.6170   20.4280 C   0  0  0  0  0  3  0  0  0  0  0  0
  -60.6100   22.4040   19.3110 C   0  0  0  0  0  0  0  0  0  0  0  0
  -60.8880   22.8120   17.9210 C   0  0  0  0  0  0  0  0  0  0  0  0
  -60.5110   24.0280   17.4940 C   0  0  0  0  0  0  0  0  0  0  0  0
  -59.8580   24.8870   18.2970 O   0  0  0  0  0  0  0  0  0  0  0  0
  -60.9700   21.3060   19.7040 O   0  0  0  0  0  0  0  0  0  0  0  0
  -60.7820   24.5070   16.0830 C   0  0  0  0  0  0  0  0  0  0  0  0
  -61.9110   25.4480   15.8730 C   0  0  0  0  0  3  0  0  0  0  0  0
  -62.2110   25.9310   14.5860 C   0  0  0  0  0  3  0  0  0  0  0  0
  -61.4020   25.5090   13.4200 C   0  0  0  0  0  0  0  0  0  0  0  0
  -60.3210   24.6020   13.6020 C   0  0  0  0  0  0  0  0  0  0  0  0
  -60.0140   24.0840   14.9590 C   0  0  0  0  0  3  0  0  0  0  0  0
  -61.7120   26.0080   12.1540 O   0  0  0  0  0  0  0  0  0  0  0  0
  -62.4260   26.6050   12.0470 H   0  0  0  0  0  0  0  0  0  0  0  0
  -59.5660   24.2130   12.4910 O   0  0  0  0  0  0  0  0  0  0  0  0
  -59.7750   24.5500   11.6410 H   0  0  0  0  0  0  0  0  0  0  0  0
  -57.7920   26.2890   22.5630 O   0  0  0  0  0  0  0  0  0  0  0  0
  -57.5770   26.0920   23.4530 H   0  0  0  0  0  0  0  0  0  0  0  0
  -59.9000   21.8380   22.1590 O   0  0  0  0  0  0  0  0  0  0  0  0
  -59.6860   21.6410   23.0490 H   0  0  0  0  0  0  0  0  0  0  0  0
  -61.5020   21.9650   17.0830 O   0  0  0  0  0  0  0  0  0  0  0  0
  -61.7650   21.1160   17.3830 H   0  0  0  0  0  0  0  0  0  0  0  0
  1  2  1  0  0  0  0
  1 22  1  0  0  0  0
  3 24  1  0  0  0  0
  3  2  2  0  0  0  0
  4  3  1  0  0  0  0
  5  4  2  0  0  0  0
  5  6  1  0  0  0  0
  6  1  2  0  0  0  0
  7 11  2  0  0  0  0
  7  4  1  0  0  0  0
  8  7  1  0  0  0  0
  9  8  2  0  0  0  0
  9 10  1  0  0  0  0
 10  5  1  0  0  0  0
 12  9  1  0  0  0  0
 13 12  1  0  0  0  0
 14 13  2  0  0  0  0
 15 16  2  0  0  0  0
 15 14  1  0  0  0  0
 16 17  1  0  0  0  0
 17 12  2  0  0  0  0
 18 15  1  0  0  0  0
 19 18  1  0  0  0  0
 20 16  1  0  0  0  0
 21 20  1  0  0  0  0
 22 23  1  0  0  0  0
 24 25  1  0  0  0  0
 26 27  1  0  0  0  0
 26  8  1  0  0  0  0
M  END
>  <minimizedAffinity>
-4.87500048

$$$$

 OpenBabel10112400453D

 27 29  0  0  0  0  0  0  0  0999 V2000
  -58.5420   23.7140   13.2190 C   0  0  0  0  0  0  0  0  0  0  0  0
  -59.8760   24.0740   12.6860 C   0  0  0  0  0  3  0  0  0  0  0  0
  -60.9310   24.4420   13.5720 C   0  0  0  0  0  0  0  0  0  0  0  0
  -60.6720   24.4580   15.0330 C   0  0  0  0  0  0  0  0  0  0  0  0
  -59.4190   24.1200   15.5440 C   0  0  0  0  0  0  0  0  0  0  0  0
  -58.3230   23.7370   14.6250 C   0  0  0  0  0  3  0  0  0  0  0  0
  -61.7270   24.8350   16.0410 C   0  0  0  0  0  0  0  0  0  0  0  0
  -61.3540   24.8260   17.4680 C   0  0  0  0  0  0  0  0  0  0  0  0
  -60.1130   24.4670   17.8310 C   0  0  0  0  0  0  0  0  0  0  0  0
  -59.1800   24.1340   16.9210 O   0  0  0  0  0  0  0  0  0  0  0  0
  -62.8610   25.1440   15.7130 O   0  0  0  0  0  0  0  0  0  0  0  0
  -59.6780   24.4250   19.2820 C   0  0  0  0  0  0  0  0  0  0  0  0
  -59.9920   23.2050   20.0670 C   0  0  0  0  0  3  0  0  0  0  0  0
  -59.6110   23.1040   21.4170 C   0  0  0  0  0  3  0  0  0  0  0  0
  -58.8880   24.2150   22.0760 C   0  0  0  0  0  0  0  0  0  0  0  0
  -58.5840   25.3950   21.3410 C   0  0  0  0  0  0  0  0  0  0  0  0
  -58.9980   25.5040   19.9190 C   0  0  0  0  0  3  0  0  0  0  0  0
  -58.5110   24.0900   23.4150 O   0  0  0  0  0  0  0  0  0  0  0  0
  -58.7160   23.3070   23.8880 H   0  0  0  0  0  0  0  0  0  0  0  0
  -57.8990   26.4350   21.9770 O   0  0  0  0  0  0  0  0  0  0  0  0
  -57.6460   26.3480   22.8750 H   0  0  0  0  0  0  0  0  0  0  0  0
  -57.5260   23.3580   12.3290 O   0  0  0  0  0  0  0  0  0  0  0  0
  -57.6930   23.3490   11.4070 H   0  0  0  0  0  0  0  0  0  0  0  0
  -62.1960   24.7850   13.0890 O   0  0  0  0  0  0  0  0  0  0  0  0
  -62.3630   24.7760   12.1670 H   0  0  0  0  0  0  0  0  0  0  0  0
  -62.2490   25.1910   18.3970 O   0  0  0  0  0  0  0  0  0  0  0  0
  -63.1160   25.4410   18.1420 H   0  0  0  0  0  0  0  0  0  0  0  0
  1  6  1  0  0  0  0
  2  1  2  0  0  0  0
  2  3  1  0  0  0  0
  3  4  2  0  0  0  0
  4  5  1  0  0  0  0
  4  7  1  0  0  0  0
  5 10  1  0  0  0  0
  6  5  2  0  0  0  0
  7  8  1  0  0  0  0
  8  9  2  0  0  0  0
  8 26  1  0  0  0  0
  9 12  1  0  0  0  0
 10  9  1  0  0  0  0
 11  7  2  0  0  0  0
 12 17  2  0  0  0  0
 12 13  1  0  0  0  0
 13 14  2  0  0  0  0
 14 15  1  0  0  0  0
 15 18  1  0  0  0  0
 16 20  1  0  0  0  0
 16 15  2  0  0  0  0
 17 16  1  0  0  0  0
 18 19  1  0  0  0  0
 20 21  1  0  0  0  0
 22  1  1  0  0  0  0
 23 22  1  0  0  0  0
 24  3  1  0  0  0  0
 25 24  1  0  0  0  0
 27 26  1  0  0  0  0
M  END
>  <minimizedAffinity>
-4.86740017

$$$$

 OpenBabel10112400453D

 27 29  0  0  0  0  0  0  0  0999 V2000
  -61.1540   22.6180   16.1990 C   0  0  0  0  0  0  0  0  0  0  0  0
  -60.7360   21.3860   16.9070 C   0  0  0  0  0  3  0  0  0  0  0  0
  -60.3390   21.4400   18.2750 C   0  0  0  0  0  0  0  0  0  0  0  0
  -60.3520   22.7470   18.9790 C   0  0  0  0  0  0  0  0  0  0  0  0
  -60.7440   23.9130   18.3190 C   0  0  0  0  0  0  0  0  0  0  0  0
  -61.1560   23.8570   16.8980 C   0  0  0  0  0  3  0  0  0  0  0  0
  -59.9510   22.8970   20.4230 C   0  0  0  0  0  0  0  0  0  0  0  0
  -60.0130   24.2430   21.0210 C   0  0  0  0  0  0  0  0  0  0  0  0
  -60.3960   25.2890   20.2730 C   0  0  0  0  0  0  0  0  0  0  0  0
  -60.7530   25.1420   18.9850 O   0  0  0  0  0  0  0  0  0  0  0  0
  -59.5840   21.9490   21.0990 O   0  0  0  0  0  0  0  0  0  0  0  0
  -60.4640   26.6970   20.8290 C   0  0  0  0  0  0  0  0  0  0  0  0
  -59.1930   27.3440   21.2410 C   0  0  0  0  0  3  0  0  0  0  0  0
  -59.1900   28.6510   21.7610 C   0  0  0  0  0  3  0  0  0  0  0  0
  -60.4570   29.4030   21.9040 C   0  0  0  0  0  0  0  0  0  0  0  0
  -61.6860   28.7960   21.5210 C   0  0  0  0  0  0  0  0  0  0  0  0
  -61.6870   27.4120   20.9830 C   0  0  0  0  0  3  0  0  0  0  0  0
  -60.4300   30.7020   22.4140 O   0  0  0  0  0  0  0  0  0  0  0  0
  -59.6140   31.0910   22.6630 H   0  0  0  0  0  0  0  0  0  0  0  0
  -62.8740   29.5190   21.6610 O   0  0  0  0  0  0  0  0  0  0  0  0
  -62.8540   30.3920   22.0020 H   0  0  0  0  0  0  0  0  0  0  0  0
  -61.5380   22.5360   14.8580 O   0  0  0  0  0  0  0  0  0  0  0  0
  -61.5290   21.7090   14.4180 H   0  0  0  0  0  0  0  0  0  0  0  0
  -59.9410   20.2890   18.9600 O   0  0  0  0  0  0  0  0  0  0  0  0
  -59.9320   19.4630   18.5200 H   0  0  0  0  0  0  0  0  0  0  0  0
  -59.7010   24.4180   22.3140 O   0  0  0  0  0  0  0  0  0  0  0  0
  -59.4330   23.6870   22.8350 H   0  0  0  0  0  0  0  0  0  0  0  0
  1  6  2  0  0  0  0
  1  2  1  0  0  0  0
  2  3  2  0  0  0  0
  3 24  1  0  0  0  0
  3  4  1  0  0  0  0
  4  7  1  0  0  0  0
  5  4  2  0  0  0  0
  5 10  1  0  0  0  0
  6  5  1  0  0  0  0
  7  8  1  0  0  0  0
  7 11  2  0  0  0  0
  8 26  1  0  0  0  0
  9 12  1  0  0  0  0
  9  8  2  0  0  0  0
 10  9  1  0  0  0  0
 12 17  2  0  0  0  0
 12 13  1  0  0  0  0
 13 14  2  0  0  0  0
 14 15  1  0  0  0  0
 15 18  1  0  0  0  0
 16 20  1  0  0  0  0
 16 15  2  0  0  0  0
 17 16  1  0  0  0  0
 18 19  1  0  0  0  0
 20 21  1  0  0  0  0
 22  1  1  0  0  0  0
 23 22  1  0  0  0  0
 25 24  1  0  0  0  0
 26 27  1  0  0  0  0
M  END
>  <minimizedAffinity>
-4.73240805

$$$$

 OpenBabel10112400453D

 27 29  0  0  0  0  0  0  0  0999 V2000
  -59.8850   23.7370   15.0510 C   0  0  0  0  0  0  0  0  0  0  0  0
  -60.4990   22.4000   15.2310 C   0  0  0  0  0  3  0  0  0  0  0  0
  -60.7570   21.8970   16.5390 C   0  0  0  0  0  0  0  0  0  0  0  0
  -60.4030   22.7290   17.7160 C   0  0  0  0  0  0  0  0  0  0  0  0
  -59.8250   23.9890   17.5560 C   0  0  0  0  0  0  0  0  0  0  0  0
  -59.5550   24.5130   16.1970 C   0  0  0  0  0  3  0  0  0  0  0  0
  -60.6420   22.2770   19.1330 C   0  0  0  0  0  0  0  0  0  0  0  0
  -60.2600   23.1920   20.2240 C   0  0  0  0  0  0  0  0  0  0  0  0
  -59.6970   24.3760   19.9360 C   0  0  0  0  0  0  0  0  0  0  0  0
  -59.4910   24.7690   18.6660 O   0  0  0  0  0  0  0  0  0  0  0  0
  -61.1370   21.1920   19.3960 O   0  0  0  0  0  0  0  0  0  0  0  0
  -59.2710   25.3500   21.0150 C   0  0  0  0  0  0  0  0  0  0  0  0
  -60.1450   26.5200   21.2810 C   0  0  0  0  0  3  0  0  0  0  0  0
  -59.8060   27.4580   22.2730 C   0  0  0  0  0  3  0  0  0  0  0  0
  -58.5690   27.2910   23.0680 C   0  0  0  0  0  0  0  0  0  0  0  0
  -57.7150   26.1800   22.8230 C   0  0  0  0  0  0  0  0  0  0  0  0
  -58.0700   25.1980   21.7670 C   0  0  0  0  0  3  0  0  0  0  0  0
  -58.2550   28.2290   24.0540 O   0  0  0  0  0  0  0  0  0  0  0  0
  -58.8260   28.9570   24.2070 H   0  0  0  0  0  0  0  0  0  0  0  0
  -56.5500   26.0360   23.5840 O   0  0  0  0  0  0  0  0  0  0  0  0
  -56.3420   26.6660   24.2460 H   0  0  0  0  0  0  0  0  0  0  0  0
  -59.6430   24.2060   13.7580 O   0  0  0  0  0  0  0  0  0  0  0  0
  -59.8680   23.6780   13.0180 H   0  0  0  0  0  0  0  0  0  0  0  0
  -61.3350   20.6390   16.7300 O   0  0  0  0  0  0  0  0  0  0  0  0
  -61.5600   20.1100   15.9900 H   0  0  0  0  0  0  0  0  0  0  0  0
  -60.4890   22.8480   21.5000 O   0  0  0  0  0  0  0  0  0  0  0  0
  -60.8810   22.0200   21.7000 H   0  0  0  0  0  0  0  0  0  0  0  0
  1  2  2  0  0  0  0
  1  6  1  0  0  0  0
  2  3  1  0  0  0  0
  3 24  1  0  0  0  0
  3  4  2  0  0  0  0
  4  7  1  0  0  0  0
  5  4  1  0  0  0  0
  5 10  1  0  0  0  0
  6  5  2  0  0  0  0
  7 11  2  0  0  0  0
  7  8  1  0  0  0  0
  8 26  1  0  0  0  0
  9  8  2  0  0  0  0
  9 12  1  0  0  0  0
 10  9  1  0  0  0  0
 12 13  2  0  0  0  0
 12 17  1  0  0  0  0
 13 14  1  0  0  0  0
 14 15  2  0  0  0  0
 15 18  1  0  0  0  0
 16 15  1  0  0  0  0
 16 20  1  0  0  0  0
 17 16  2  0  0  0  0
 18 19  1  0  0  0  0
 20 21  1  0  0  0  0
 22  1  1  0  0  0  0
 23 22  1  0  0  0  0
 25 24  1  0  0  0  0
 26 27  1  0  0  0  0
M  END
>  <minimizedAffinity>
-4.72476959

$$$$

 OpenBabel10112400453D

 27 29  0  0  0  0  0  0  0  0999 V2000
  -60.2740   28.2820   21.7250 C   0  0  0  0  0  0  0  0  0  0  0  0
  -59.3540   27.9610   22.8410 C   0  0  0  0  0  3  0  0  0  0  0  0
  -58.9360   26.6170   23.0660 C   0  0  0  0  0  0  0  0  0  0  0  0
  -59.4330   25.5470   22.1660 C   0  0  0  0  0  0  0  0  0  0  0  0
  -60.3000   25.8400   21.1130 C   0  0  0  0  0  0  0  0  0  0  0  0
  -60.7360   27.2360   20.8790 C   0  0  0  0  0  3  0  0  0  0  0  0
  -59.0420   24.1010   22.3290 C   0  0  0  0  0  0  0  0  0  0  0  0
  -59.5900   23.1250   21.3690 C   0  0  0  0  0  0  0  0  0  0  0  0
  -60.4280   23.5350   20.4040 C   0  0  0  0  0  0  0  0  0  0  0  0
  -60.7680   24.8290   20.2680 O   0  0  0  0  0  0  0  0  0  0  0  0
  -58.2960   23.7240   23.2180 O   0  0  0  0  0  0  0  0  0  0  0  0
  -61.0330   22.5760   19.4000 C   0  0  0  0  0  0  0  0  0  0  0  0
  -62.3390   21.9530   19.7320 C   0  0  0  0  0  3  0  0  0  0  0  0
  -62.9540   21.0580   18.8390 C   0  0  0  0  0  3  0  0  0  0  0  0
  -62.3070   20.7230   17.5500 C   0  0  0  0  0  0  0  0  0  0  0  0
  -61.0510   21.3040   17.2180 C   0  0  0  0  0  0  0  0  0  0  0  0
  -60.3990   22.2410   18.1680 C   0  0  0  0  0  3  0  0  0  0  0  0
  -62.9390   19.8380   16.6740 O   0  0  0  0  0  0  0  0  0  0  0  0
  -63.7660   19.4620   16.9050 H   0  0  0  0  0  0  0  0  0  0  0  0
  -60.4530   20.9790   15.9960 O   0  0  0  0  0  0  0  0  0  0  0  0
  -60.8800   20.3860   15.4090 H   0  0  0  0  0  0  0  0  0  0  0  0
  -60.6680   29.6080   21.5270 O   0  0  0  0  0  0  0  0  0  0  0  0
  -60.3510   30.2810   22.0970 H   0  0  0  0  0  0  0  0  0  0  0  0
  -58.0700   26.2930   24.1140 O   0  0  0  0  0  0  0  0  0  0  0  0
  -57.7540   26.9660   24.6840 H   0  0  0  0  0  0  0  0  0  0  0  0
  -59.2400   21.8330   21.4520 O   0  0  0  0  0  0  0  0  0  0  0  0
  -58.6550   21.5480   22.1270 H   0  0  0  0  0  0  0  0  0  0  0  0
  1  2  1  0  0  0  0
  2  3  2  0  0  0  0
  3 24  1  0  0  0  0
  4  7  1  0  0  0  0
  4  3  1  0  0  0  0
  5  4  2  0  0  0  0
  6  5  1  0  0  0  0
  6  1  2  0  0  0  0
  7 11  2  0  0  0  0
  8 26  1  0  0  0  0
  8  7  1  0  0  0  0
  9  8  2  0  0  0  0
 10  9  1  0  0  0  0
 10  5  1  0  0  0  0
 12 13  1  0  0  0  0
 12  9  1  0  0  0  0
 14 13  2  0  0  0  0
 15 14  1  0  0  0  0
 16 15  2  0  0  0  0
 16 17  1  0  0  0  0
 17 12  2  0  0  0  0
 18 19  1  0  0  0  0
 18 15  1  0  0  0  0
 20 16  1  0  0  0  0
 21 20  1  0  0  0  0
 22  1  1  0  0  0  0
 22 23  1  0  0  0  0
 24 25  1  0  0  0  0
 26 27  1  0  0  0  0
M  END
>  <minimizedAffinity>
-4.6308136

$$$$

 OpenBabel10112400453D

 27 29  0  0  0  0  0  0  0  0999 V2000
  -62.2890   26.1710   13.6750 C   0  0  0  0  0  0  0  0  0  0  0  0
  -61.9660   24.9160   12.9560 C   0  0  0  0  0  3  0  0  0  0  0  0
  -61.3760   23.8200   13.6510 C   0  0  0  0  0  0  0  0  0  0  0  0
  -61.0910   23.9540   15.1010 C   0  0  0  0  0  0  0  0  0  0  0  0
  -61.3920   25.1330   15.7850 C   0  0  0  0  0  0  0  0  0  0  0  0
  -62.0050   26.2720   15.0650 C   0  0  0  0  0  3  0  0  0  0  0  0
  -60.4710   22.8470   15.9140 C   0  0  0  0  0  0  0  0  0  0  0  0
  -60.2430   23.0890   17.3500 C   0  0  0  0  0  0  0  0  0  0  0  0
  -60.5660   24.2760   17.8870 C   0  0  0  0  0  0  0  0  0  0  0  0
  -61.1210   25.2560   17.1510 O   0  0  0  0  0  0  0  0  0  0  0  0
  -60.1600   21.7740   15.4220 O   0  0  0  0  0  0  0  0  0  0  0  0
  -60.3410   24.5870   19.3530 C   0  0  0  0  0  0  0  0  0  0  0  0
  -61.3870   24.1700   20.3200 C   0  0  0  0  0  3  0  0  0  0  0  0
  -61.2340   24.4260   21.6950 C   0  0  0  0  0  3  0  0  0  0  0  0
  -60.0250   25.1170   22.1980 C   0  0  0  0  0  0  0  0  0  0  0  0
  -59.0160   25.5300   21.2840 C   0  0  0  0  0  0  0  0  0  0  0  0
  -59.1840   25.2680   19.8330 C   0  0  0  0  0  3  0  0  0  0  0  0
  -59.8900   25.3530   23.5680 O   0  0  0  0  0  0  0  0  0  0  0  0
  -60.5620   25.0760   24.1590 H   0  0  0  0  0  0  0  0  0  0  0  0
  -57.8790   26.1800   21.7750 O   0  0  0  0  0  0  0  0  0  0  0  0
  -57.7890   26.3360   22.6950 H   0  0  0  0  0  0  0  0  0  0  0  0
  -62.8670   27.2300   12.9700 O   0  0  0  0  0  0  0  0  0  0  0  0
  -63.0460   27.1410   12.0540 H   0  0  0  0  0  0  0  0  0  0  0  0
  -61.0630   22.6290   12.9910 O   0  0  0  0  0  0  0  0  0  0  0  0
  -61.2410   22.5400   12.0760 H   0  0  0  0  0  0  0  0  0  0  0  0
  -59.7290   22.1200   18.1210 O   0  0  0  0  0  0  0  0  0  0  0  0
  -59.5030   21.2920   17.7440 H   0  0  0  0  0  0  0  0  0  0  0  0
  1  6  1  0  0  0  0
  2  3  1  0  0  0  0
  2  1  2  0  0  0  0
  3  4  2  0  0  0  0
  4  5  1  0  0  0  0
  4  7  1  0  0  0  0
  5 10  1  0  0  0  0
  6  5  2  0  0  0  0
  7  8  1  0  0  0  0
  8  9  2  0  0  0  0
  8 26  1  0  0  0  0
  9 12  1  0  0  0  0
 10  9  1  0  0  0  0
 11  7  2  0  0  0  0
 12 17  2  0  0  0  0
 12 13  1  0  0  0  0
 13 14  2  0  0  0  0
 14 15  1  0  0  0  0
 15 18  1  0  0  0  0
 16 20  1  0  0  0  0
 16 15  2  0  0  0  0
 17 16  1  0  0  0  0
 18 19  1  0  0  0  0
 20 21  1  0  0  0  0
 22  1  1  0  0  0  0
 23 22  1  0  0  0  0
 24  3  1  0  0  0  0
 25 24  1  0  0  0  0
 27 26  1  0  0  0  0
M  END
>  <minimizedAffinity>
-4.28467941

$$$$

 OpenBabel10112400453D

 27 29  0  0  0  0  0  0  0  0999 V2000
  -61.4760   23.4650   17.9020 C   0  0  0  0  0  0  0  0  0  0  0  0
  -60.8390   22.3390   18.6240 C   0  0  0  0  0  3  0  0  0  0  0  0
  -60.2620   22.5430   19.9110 C   0  0  0  0  0  0  0  0  0  0  0  0
  -60.3100   23.8970   20.5170 C   0  0  0  0  0  0  0  0  0  0  0  0
  -60.9070   24.9640   19.8440 C   0  0  0  0  0  0  0  0  0  0  0  0
  -61.5070   24.7530   18.5060 C   0  0  0  0  0  3  0  0  0  0  0  0
  -59.7270   24.2030   21.8730 C   0  0  0  0  0  0  0  0  0  0  0  0
  -59.8420   25.5830   22.3790 C   0  0  0  0  0  0  0  0  0  0  0  0
  -60.4310   26.5240   21.6250 C   0  0  0  0  0  0  0  0  0  0  0  0
  -60.9490   26.2380   20.4170 O   0  0  0  0  0  0  0  0  0  0  0  0
  -59.1740   23.3520   22.5510 O   0  0  0  0  0  0  0  0  0  0  0  0
  -60.5640   27.9610   22.0860 C   0  0  0  0  0  0  0  0  0  0  0  0
  -61.6100   28.2740   23.0920 C   0  0  0  0  0  3  0  0  0  0  0  0
  -61.7800   29.5890   23.5630 C   0  0  0  0  0  3  0  0  0  0  0  0
  -60.9160   30.6820   23.0610 C   0  0  0  0  0  0  0  0  0  0  0  0
  -59.9140   30.4010   22.0910 C   0  0  0  0  0  0  0  0  0  0  0  0
  -59.7430   29.0150   21.5880 C   0  0  0  0  0  3  0  0  0  0  0  0
  -61.0970   31.9780   23.5490 O   0  0  0  0  0  0  0  0  0  0  0  0
  -61.7610   32.1490   24.1880 H   0  0  0  0  0  0  0  0  0  0  0  0
  -59.1050   31.4440   21.6290 O   0  0  0  0  0  0  0  0  0  0  0  0
  -59.2270   32.3130   21.9580 H   0  0  0  0  0  0  0  0  0  0  0  0
  -62.0340   23.2380   16.6420 O   0  0  0  0  0  0  0  0  0  0  0  0
  -62.0020   22.3810   16.2630 H   0  0  0  0  0  0  0  0  0  0  0  0
  -59.6560   21.4950   20.6080 O   0  0  0  0  0  0  0  0  0  0  0  0
  -59.6240   20.6390   20.2290 H   0  0  0  0  0  0  0  0  0  0  0  0
  -59.3710   25.8930   23.5960 O   0  0  0  0  0  0  0  0  0  0  0  0
  -58.9590   25.2350   24.1210 H   0  0  0  0  0  0  0  0  0  0  0  0
  1  6  2  0  0  0  0
  1  2  1  0  0  0  0
  2  3  2  0  0  0  0
  3  4  1  0  0  0  0
  3 24  1  0  0  0  0
  4  7  1  0  0  0  0
  5 10  1  0  0  0  0
  5  4  2  0  0  0  0
  6  5  1  0  0  0  0
  7  8  1  0  0  0  0
  7 11  2  0  0  0  0
  8 26  1  0  0  0  0
  9 12  1  0  0  0  0
  9  8  2  0  0  0  0
 10  9  1  0  0  0  0
 12 13  1  0  0  0  0
 13 14  2  0  0  0  0
 15 18  1  0  0  0  0
 15 14  1  0  0  0  0
 16 15  2  0  0  0  0
 17 12  2  0  0  0  0
 17 16  1  0  0  0  0
 18 19  1  0  0  0  0
 20 21  1  0  0  0  0
 20 16  1  0  0  0  0
 22  1  1  0  0  0  0
 23 22  1  0  0  0  0
 25 24  1  0  0  0  0
 26 27  1  0  0  0  0
M  END
>  <minimizedAffinity>
-4.24744368

$$$$
