
 OpenBabel10112400443D

 27 29  0  0  0  0  0  0  0  0999 V2000
  -36.2350   31.7140   10.4030 C   0  0  0  0  0  0  0  0  0  0  0  0
  -34.8910   31.4180   10.9510 C   0  0  0  0  0  3  0  0  0  0  0  0
  -34.1020   30.3670   10.3970 C   0  0  0  0  0  0  0  0  0  0  0  0
  -34.6460   29.5780    9.2640 C   0  0  0  0  0  0  0  0  0  0  0  0
  -35.9110   29.8500    8.7420 C   0  0  0  0  0  0  0  0  0  0  0  0
  -36.7310   30.9400    9.3170 C   0  0  0  0  0  3  0  0  0  0  0  0
  -33.8810   28.4520    8.6170 C   0  0  0  0  0  0  0  0  0  0  0  0
  -34.5170   27.7430    7.4910 C   0  0  0  0  0  0  0  0  0  0  0  0
  -35.7490   28.0950    7.0910 C   0  0  0  0  0  0  0  0  0  0  0  0
  -36.4200   29.1030    7.6760 O   0  0  0  0  0  0  0  0  0  0  0  0
  -32.7690   28.1200    8.9920 O   0  0  0  0  0  0  0  0  0  0  0  0
  -36.4580   27.3930    5.9500 C   0  0  0  0  0  0  0  0  0  0  0  0
  -37.9420   27.3790    5.9580 C   0  0  0  0  0  3  0  0  0  0  0  0
  -38.6580   26.7470    4.9250 C   0  0  0  0  0  3  0  0  0  0  0  0
  -37.9390   26.0850    3.8120 C   0  0  0  0  0  0  0  0  0  0  0  0
  -36.5170   26.0820    3.7920 C   0  0  0  0  0  0  0  0  0  0  0  0
  -35.7630   26.7400    4.8900 C   0  0  0  0  0  3  0  0  0  0  0  0
  -38.6700   25.4710    2.7920 O   0  0  0  0  0  0  0  0  0  0  0  0
  -39.6070   25.4800    2.8170 H   0  0  0  0  0  0  0  0  0  0  0  0
  -35.8530   25.4540    2.7340 O   0  0  0  0  0  0  0  0  0  0  0  0
  -36.3450   25.0440    2.0500 H   0  0  0  0  0  0  0  0  0  0  0  0
  -36.9870   32.7490   10.9650 O   0  0  0  0  0  0  0  0  0  0  0  0
  -36.6390   33.2450   11.6790 H   0  0  0  0  0  0  0  0  0  0  0  0
  -32.8330   30.0720   10.9000 O   0  0  0  0  0  0  0  0  0  0  0  0
  -32.4860   30.5680   11.6150 H   0  0  0  0  0  0  0  0  0  0  0  0
  -33.8590   26.7600    6.8600 O   0  0  0  0  0  0  0  0  0  0  0  0
  -32.9990   26.5150    7.1410 H   0  0  0  0  0  0  0  0  0  0  0  0
  1  2  1  0  0  0  0
  1 22  1  0  0  0  0
  3 24  1  0  0  0  0
  3  2  2  0  0  0  0
  4  3  1  0  0  0  0
  5  4  2  0  0  0  0
  5  6  1  0  0  0  0
  6  1  2  0  0  0  0
  7 11  2  0  0  0  0
  7  4  1  0  0  0  0
  8  7  1  0  0  0  0
  9  8  2  0  0  0  0
  9 10  1  0  0  0  0
 10  5  1  0  0  0  0
 12 13  1  0  0  0  0
 12  9  1  0  0  0  0
 14 13  2  0  0  0  0
 15 14  1  0  0  0  0
 16 15  2  0  0  0  0
 16 17  1  0  0  0  0
 17 12  2  0  0  0  0
 18 19  1  0  0  0  0
 18 15  1  0  0  0  0
 20 16  1  0  0  0  0
 21 20  1  0  0  0  0
 22 23  1  0  0  0  0
 24 25  1  0  0  0  0
 26 27  1  0  0  0  0
 26  8  1  0  0  0  0
M  END
>  <minimizedAffinity>
17.0567245

$$$$
