REMARK  Name = /Users/wangyang/Desktop/Breast_cancer_brain_metastasis/wang_Gene/AIDD/15_Protein_ligand_docking/data_7ztl/protein.pdb
REMARK  1290 active torsions:
REMARK  status: ('A' for Active; 'I' for Inactive)
REMARK    1  A    between atoms: N_1  and  CA_2
REMARK    2  A    between atoms: CA_2  and  C_3
REMARK    3  A    between atoms: N_5  and  CA_6
REMARK    4  A    between atoms: CA_6  and  C_7
REMARK    5  A    between atoms: CA_6  and  CB_9
REMARK    6  A    between atoms: N_10  and  CA_11
REMARK    7  A    between atoms: CA_11  and  C_12
REMARK    8  A    between atoms: CA_11  and  CB_14
REMARK    9  A    between atoms: CB_14  and  CG_15
REMARK   10  A    between atoms: N_24  and  CA_25
REMARK   11  A    between atoms: CA_25  and  C_26
REMARK   12  A    between atoms: CA_25  and  CB_28
REMARK   13  A    between atoms: N_29  and  CA_30
REMARK   14  A    between atoms: CA_30  and  C_31
REMARK   15  A    between atoms: CA_30  and  CB_33
REMARK   16  A    between atoms: CB_33  and  CG_34
REMARK   17  A    between atoms: CG_34  and  CD1_35
REMARK   18  A    between atoms: CG_34  and  CD2_36
REMARK   19  A    between atoms: N_37  and  CA_38
REMARK   20  A    between atoms: CA_38  and  C_39
REMARK   21  A    between atoms: CA_38  and  CB_41
REMARK   22  A    between atoms: CB_41  and  CG_42
REMARK   23  A    between atoms: CG_42  and  CD_43
REMARK   24  A    between atoms: N_46  and  CA_47
REMARK   25  A    between atoms: CA_47  and  C_48
REMARK   26  A    between atoms: CA_47  and  CB_50
REMARK   27  A    between atoms: CB_50  and  CG_51
REMARK   28  A    between atoms: N_54  and  CA_55
REMARK   29  A    between atoms: CA_55  and  C_56
REMARK   30  A    between atoms: CA_55  and  CB_58
REMARK   31  A    between atoms: CB_58  and  CG_59
REMARK   32  A    between atoms: N_65  and  CA_66
REMARK   33  A    between atoms: CA_66  and  C_67
REMARK   34  A    between atoms: CA_66  and  CB_69
REMARK   35  A    between atoms: CB_69  and  CG_70
REMARK   36  A    between atoms: CG_70  and  CD_71
REMARK   37  A    between atoms: N_74  and  CA_75
REMARK   38  A    between atoms: CA_75  and  C_76
REMARK   39  A    between atoms: CA_75  and  CB_78
REMARK   40  A    between atoms: CB_78  and  CG1_79
REMARK   41  A    between atoms: CB_78  and  CG2_80
REMARK   42  A    between atoms: CG1_79  and  CD1_81
REMARK   43  A    between atoms: N_82  and  CA_83
REMARK   44  A    between atoms: CA_83  and  C_84
REMARK   45  A    between atoms: N_86  and  CA_87
REMARK   46  A    between atoms: CA_87  and  C_88
REMARK   47  A    between atoms: CA_87  and  CB_90
REMARK   48  A    between atoms: CB_90  and  CG_91
REMARK   49  A    between atoms: CG_91  and  CD_92
REMARK   50  A    between atoms: CD_92  and  NE_93
REMARK   51  A    between atoms: CA_98  and  C_99
REMARK   52  A    between atoms: N_104  and  CA_105
REMARK   53  A    between atoms: CA_105  and  C_106
REMARK   54  A    between atoms: CA_105  and  CB_108
REMARK   55  A    between atoms: CB_108  and  CG_109
REMARK   56  A    between atoms: CG_109  and  CD1_110
REMARK   57  A    between atoms: CG_109  and  CD2_111
REMARK   58  A    between atoms: N_112  and  CA_113
REMARK   59  A    between atoms: CA_113  and  C_114
REMARK   60  A    between atoms: N_116  and  C_117
REMARK   61  A    between atoms: C_117  and  C_118
REMARK   62  A    between atoms: C_117  and  C_120
REMARK   63  A    between atoms: C_120  and  C_121
REMARK   64  A    between atoms: C_121  and  C_122
REMARK   65  A    between atoms: N_123  and  CA_124
REMARK   66  A    between atoms: CA_124  and  C_125
REMARK   67  A    between atoms: N_127  and  CA_128
REMARK   68  A    between atoms: CA_128  and  C_129
REMARK   69  A    between atoms: CA_128  and  CB_131
REMARK   70  A    between atoms: CB_131  and  CG_132
REMARK   71  A    between atoms: CG_132  and  CD_133
REMARK   72  A    between atoms: CD_133  and  CE_134
REMARK   73  A    between atoms: CE_134  and  NZ_135
REMARK   74  A    between atoms: N_136  and  CA_137
REMARK   75  A    between atoms: CA_137  and  C_138
REMARK   76  A    between atoms: CA_137  and  CB_140
REMARK   77  A    between atoms: CB_140  and  CG_141
REMARK   78  A    between atoms: N_147  and  CA_148
REMARK   79  A    between atoms: CA_148  and  C_149
REMARK   80  A    between atoms: N_151  and  CA_152
REMARK   81  A    between atoms: CA_152  and  C_153
REMARK   82  A    between atoms: CA_152  and  CB_155
REMARK   83  A    between atoms: CB_155  and  CG_156
REMARK   84  A    between atoms: N_159  and  CA_160
REMARK   85  A    between atoms: CA_160  and  C_161
REMARK   86  A    between atoms: CA_160  and  CB_163
REMARK   87  A    between atoms: CB_163  and  CG1_164
REMARK   88  A    between atoms: CB_163  and  CG2_165
REMARK   89  A    between atoms: N_166  and  CA_167
REMARK   90  A    between atoms: CA_167  and  C_168
REMARK   91  A    between atoms: CA_167  and  CB_170
REMARK   92  A    between atoms: CB_170  and  CG_171
REMARK   93  A    between atoms: CZ_176  and  OH_177
REMARK   94  A    between atoms: N_178  and  CA_179
REMARK   95  A    between atoms: CA_179  and  C_180
REMARK   96  A    between atoms: CA_179  and  CB_182
REMARK   97  A    between atoms: CB_182  and  CG_183
REMARK   98  A    between atoms: CG_183  and  CD1_184
REMARK   99  A    between atoms: CG_183  and  CD2_185
REMARK  100  A    between atoms: N_186  and  CA_187
REMARK  101  A    between atoms: CA_187  and  C_188
REMARK  102  A    between atoms: CA_187  and  CB_190
REMARK  103  A    between atoms: N_191  and  CA_192
REMARK  104  A    between atoms: CA_192  and  C_193
REMARK  105  A    between atoms: CA_192  and  CB_195
REMARK  106  A    between atoms: CB_195  and  CG_196
REMARK  107  A    between atoms: CG_196  and  CD_197
REMARK  108  A    between atoms: CD_197  and  NE_198
REMARK  109  A    between atoms: N_202  and  CA_203
REMARK  110  A    between atoms: CA_203  and  C_204
REMARK  111  A    between atoms: CA_203  and  CB_206
REMARK  112  A    between atoms: CB_206  and  CG_207
REMARK  113  A    between atoms: CG_207  and  CD_208
REMARK  114  A    between atoms: N_211  and  CA_212
REMARK  115  A    between atoms: CA_212  and  C_213
REMARK  116  A    between atoms: CA_212  and  CB_215
REMARK  117  A    between atoms: CB_215  and  CG_216
REMARK  118  A    between atoms: CG_216  and  CD_217
REMARK  119  A    between atoms: CD_217  and  CE_218
REMARK  120  A    between atoms: CE_218  and  NZ_219
REMARK  121  A    between atoms: N_220  and  CA_221
REMARK  122  A    between atoms: CA_221  and  C_222
REMARK  123  A    between atoms: CA_221  and  CB_224
REMARK  124  A    between atoms: N_225  and  CA_226
REMARK  125  A    between atoms: CA_226  and  C_227
REMARK  126  A    between atoms: CA_226  and  CB_229
REMARK  127  A    between atoms: CB_229  and  OG_230
REMARK  128  A    between atoms: N_231  and  CA_232
REMARK  129  A    between atoms: CA_232  and  C_233
REMARK  130  A    between atoms: CA_232  and  CB_235
REMARK  131  A    between atoms: CB_235  and  CG_236
REMARK  132  A    between atoms: CG_236  and  CD_237
REMARK  133  A    between atoms: CD_237  and  CE_238
REMARK  134  A    between atoms: CE_238  and  NZ_239
REMARK  135  A    between atoms: N_240  and  CA_241
REMARK  136  A    between atoms: CA_241  and  C_242
REMARK  137  A    between atoms: CA_241  and  CB_244
REMARK  138  A    between atoms: CB_244  and  CG_245
REMARK  139  A    between atoms: N_251  and  CA_252
REMARK  140  A    between atoms: CA_252  and  C_253
REMARK  141  A    between atoms: CA_252  and  CB_255
REMARK  142  A    between atoms: CB_255  and  CG1_256
REMARK  143  A    between atoms: CB_255  and  CG2_257
REMARK  144  A    between atoms: CG1_256  and  CD1_258
REMARK  145  A    between atoms: N_259  and  CA_260
REMARK  146  A    between atoms: CA_260  and  C_261
REMARK  147  A    between atoms: CA_260  and  CB_263
REMARK  148  A    between atoms: CB_263  and  CG_264
REMARK  149  A    between atoms: CG_264  and  CD1_265
REMARK  150  A    between atoms: CG_264  and  CD2_266
REMARK  151  A    between atoms: N_267  and  CA_268
REMARK  152  A    between atoms: CA_268  and  C_269
REMARK  153  A    between atoms: CA_268  and  CB_271
REMARK  154  A    between atoms: N_272  and  CA_273
REMARK  155  A    between atoms: CA_273  and  C_274
REMARK  156  A    between atoms: CA_273  and  CB_276
REMARK  157  A    between atoms: CB_276  and  CG_277
REMARK  158  A    between atoms: CG_277  and  CD2_278
REMARK  159  A    between atoms: CG_277  and  CD1_279
REMARK  160  A    between atoms: N_280  and  CA_281
REMARK  161  A    between atoms: CA_281  and  C_282
REMARK  162  A    between atoms: CA_281  and  CB_284
REMARK  163  A    between atoms: CB_284  and  CG_285
REMARK  164  A    between atoms: CG_285  and  CD_286
REMARK  165  A    between atoms: CD_286  and  CE_287
REMARK  166  A    between atoms: CE_287  and  NZ_288
REMARK  167  A    between atoms: N_289  and  CA_290
REMARK  168  A    between atoms: CA_290  and  C_291
REMARK  169  A    between atoms: CA_290  and  CB_293
REMARK  170  A    between atoms: CB_293  and  CG2_294
REMARK  171  A    between atoms: CB_293  and  CG1_295
REMARK  172  A    between atoms: N_296  and  CA_297
REMARK  173  A    between atoms: CA_297  and  C_298
REMARK  174  A    between atoms: CA_297  and  CB_300
REMARK  175  A    between atoms: CB_300  and  CG_301
REMARK  176  A    between atoms: CG_301  and  CD1_302
REMARK  177  A    between atoms: CG_301  and  CD2_303
REMARK  178  A    between atoms: N_304  and  CA_305
REMARK  179  A    between atoms: CA_305  and  C_306
REMARK  180  A    between atoms: CA_305  and  CB_308
REMARK  181  A    between atoms: CB_308  and  CG_309
REMARK  182  A    between atoms: N_315  and  CA_316
REMARK  183  A    between atoms: CA_316  and  C_317
REMARK  184  A    between atoms: CA_316  and  CB_319
REMARK  185  A    between atoms: CB_319  and  CG_320
REMARK  186  A    between atoms: CG_320  and  CD_321
REMARK  187  A    between atoms: CD_321  and  CE_322
REMARK  188  A    between atoms: CE_322  and  NZ_323
REMARK  189  A    between atoms: N_324  and  CA_325
REMARK  190  A    between atoms: CA_325  and  C_326
REMARK  191  A    between atoms: CA_325  and  CB_328
REMARK  192  A    between atoms: N_329  and  CA_330
REMARK  193  A    between atoms: CA_330  and  C_331
REMARK  194  A    between atoms: CA_330  and  CB_333
REMARK  195  A    between atoms: CB_333  and  CG_334
REMARK  196  A    between atoms: CG_334  and  CD_335
REMARK  197  A    between atoms: N_338  and  CA_339
REMARK  198  A    between atoms: CA_339  and  C_340
REMARK  199  A    between atoms: CA_339  and  CB_342
REMARK  200  A    between atoms: CB_342  and  CG_343
REMARK  201  A    between atoms: CG_343  and  CD1_344
REMARK  202  A    between atoms: CG_343  and  CD2_345
REMARK  203  A    between atoms: N_346  and  CA_347
REMARK  204  A    between atoms: CA_347  and  C_348
REMARK  205  A    between atoms: CA_347  and  CB_350
REMARK  206  A    between atoms: CB_350  and  CG_351
REMARK  207  A    between atoms: CG_351  and  CD_352
REMARK  208  A    between atoms: N_355  and  C_356
REMARK  209  A    between atoms: C_356  and  C_357
REMARK  210  A    between atoms: C_356  and  C_359
REMARK  211  A    between atoms: C_359  and  C_360
REMARK  212  A    between atoms: N_361  and  CA_362
REMARK  213  A    between atoms: CA_362  and  C_363
REMARK  214  A    between atoms: CA_362  and  CB_365
REMARK  215  A    between atoms: N_366  and  CA_367
REMARK  216  A    between atoms: CA_367  and  C_368
REMARK  217  A    between atoms: N_370  and  CA_371
REMARK  218  A    between atoms: CA_371  and  C_372
REMARK  219  A    between atoms: CA_371  and  CB_374
REMARK  220  A    between atoms: CB_374  and  CG2_375
REMARK  221  A    between atoms: CB_374  and  CG1_376
REMARK  222  A    between atoms: N_377  and  CA_378
REMARK  223  A    between atoms: CA_378  and  C_379
REMARK  224  A    between atoms: CA_378  and  CB_381
REMARK  225  A    between atoms: CB_381  and  CG_382
REMARK  226  A    between atoms: CG_382  and  CD_383
REMARK  227  A    between atoms: N_386  and  CA_387
REMARK  228  A    between atoms: CA_387  and  C_388
REMARK  229  A    between atoms: CA_387  and  CB_390
REMARK  230  A    between atoms: CB_390  and  CG_391
REMARK  231  A    between atoms: N_396  and  CA_397
REMARK  232  A    between atoms: CA_397  and  C_398
REMARK  233  A    between atoms: CA_397  and  CB_400
REMARK  234  A    between atoms: CB_400  and  CG_401
REMARK  235  A    between atoms: CG_401  and  CD_402
REMARK  236  A    between atoms: N_405  and  CA_406
REMARK  237  A    between atoms: CA_406  and  C_407
REMARK  238  A    between atoms: CA_406  and  CB_409
REMARK  239  A    between atoms: CB_409  and  CG_410
REMARK  240  A    between atoms: CG_410  and  CD2_411
REMARK  241  A    between atoms: CG_410  and  CD1_412
REMARK  242  A    between atoms: N_413  and  CA_414
REMARK  243  A    between atoms: CA_414  and  C_415
REMARK  244  A    between atoms: CA_414  and  CB_417
REMARK  245  A    between atoms: CB_417  and  CG_418
REMARK  246  A    between atoms: CG_418  and  CD_419
REMARK  247  A    between atoms: CD_419  and  NE_420
REMARK  248  A    between atoms: N_424  and  CA_425
REMARK  249  A    between atoms: CA_425  and  C_426
REMARK  250  A    between atoms: CA_425  and  CB_428
REMARK  251  A    between atoms: CB_428  and  CG_429
REMARK  252  A    between atoms: CG_429  and  CD_430
REMARK  253  A    between atoms: CD_430  and  NE_431
REMARK  254  A    between atoms: N_435  and  CA_436
REMARK  255  A    between atoms: CA_436  and  C_437
REMARK  256  A    between atoms: CA_436  and  CB_439
REMARK  257  A    between atoms: CB_439  and  CG_440
REMARK  258  A    between atoms: CG_440  and  CD_441
REMARK  259  A    between atoms: N_444  and  CA_445
REMARK  260  A    between atoms: CA_445  and  C_446
REMARK  261  A    between atoms: CA_445  and  CB_448
REMARK  262  A    between atoms: CB_448  and  CG1_449
REMARK  263  A    between atoms: CB_448  and  CG2_450
REMARK  264  A    between atoms: N_451  and  C_452
REMARK  265  A    between atoms: C_452  and  C_453
REMARK  266  A    between atoms: C_452  and  C_455
REMARK  267  A    between atoms: C_455  and  C_456
REMARK  268  A    between atoms: N_457  and  CA_458
REMARK  269  A    between atoms: CA_458  and  C_459
REMARK  270  A    between atoms: CA_458  and  CB_461
REMARK  271  A    between atoms: CB_461  and  CG1_462
REMARK  272  A    between atoms: CB_461  and  CG2_463
REMARK  273  A    between atoms: CG1_462  and  CD1_464
REMARK  274  A    between atoms: N_465  and  CA_466
REMARK  275  A    between atoms: CA_466  and  C_467
REMARK  276  A    between atoms: CA_466  and  CB_469
REMARK  277  A    between atoms: CB_469  and  CG_470
REMARK  278  A    between atoms: CG_470  and  CD_471
REMARK  279  A    between atoms: N_474  and  C_475
REMARK  280  A    between atoms: C_475  and  C_476
REMARK  281  A    between atoms: C_475  and  C_478
REMARK  282  A    between atoms: C_478  and  O_479
REMARK  283  A    between atoms: N_480  and  C_481
REMARK  284  A    between atoms: C_481  and  C_482
REMARK  285  A    between atoms: C_481  and  C_484
REMARK  286  A    between atoms: C_484  and  C_485
REMARK  287  A    between atoms: N_490  and  C_491
REMARK  288  A    between atoms: C_491  and  C_492
REMARK  289  A    between atoms: C_491  and  C_494
REMARK  290  A    between atoms: C_494  and  C_495
REMARK  291  A    between atoms: C_495  and  C_496
REMARK  292  A    between atoms: C_495  and  C_497
REMARK  293  A    between atoms: N_498  and  C_499
REMARK  294  A    between atoms: C_499  and  C_500
REMARK  295  A    between atoms: C_499  and  C_502
REMARK  296  A    between atoms: C_502  and  C_503
REMARK  297  A    between atoms: C_503  and  C_504
REMARK  298  A    between atoms: C_504  and  N_505
REMARK  299  A    between atoms: N_509  and  C_510
REMARK  300  A    between atoms: C_510  and  C_511
REMARK  301  A    between atoms: C_510  and  C_513
REMARK  302  A    between atoms: C_513  and  C_514
REMARK  303  A    between atoms: C_520  and  C_521
REMARK  304  A    between atoms: N_526  and  C_527
REMARK  305  A    between atoms: C_527  and  C_528
REMARK  306  A    between atoms: C_527  and  C_530
REMARK  307  A    between atoms: C_530  and  C_531
REMARK  308  A    between atoms: N_534  and  C_535
REMARK  309  A    between atoms: C_535  and  C_536
REMARK  310  A    between atoms: C_535  and  C_538
REMARK  311  A    between atoms: C_538  and  C_539
REMARK  312  A    between atoms: C_538  and  C_540
REMARK  313  A    between atoms: C_539  and  C_541
REMARK  314  A    between atoms: N_542  and  C_543
REMARK  315  A    between atoms: C_543  and  C_544
REMARK  316  A    between atoms: C_543  and  C_546
REMARK  317  A    between atoms: C_546  and  C_547
REMARK  318  A    between atoms: C_547  and  C_548
REMARK  319  A    between atoms: C_547  and  C_549
REMARK  320  A    between atoms: N_550  and  C_551
REMARK  321  A    between atoms: C_551  and  C_552
REMARK  322  A    between atoms: C_551  and  C_554
REMARK  323  A    between atoms: C_554  and  C_555
REMARK  324  A    between atoms: C_555  and  C_556
REMARK  325  A    between atoms: C_556  and  N_557
REMARK  326  A    between atoms: N_561  and  C_562
REMARK  327  A    between atoms: C_562  and  C_567
REMARK  328  A    between atoms: C_563  and  C_564
REMARK  329  A    between atoms: C_568  and  C_569
REMARK  330  A    between atoms: C_568  and  C_571
REMARK  331  A    between atoms: C_569  and  C_572
REMARK  332  A    between atoms: C_569  and  C_573
REMARK  333  A    between atoms: C_570  and  C_573
REMARK  334  A    between atoms: N_574  and  CA_575
REMARK  335  A    between atoms: CA_575  and  C_576
REMARK  336  A    between atoms: CA_575  and  CB_578
REMARK  337  A    between atoms: CB_578  and  CG_579
REMARK  338  A    between atoms: CZ_584  and  OH_585
REMARK  339  A    between atoms: N_586  and  CA_587
REMARK  340  A    between atoms: CA_587  and  C_588
REMARK  341  A    between atoms: N_590  and  CA_591
REMARK  342  A    between atoms: CA_591  and  C_592
REMARK  343  A    between atoms: CA_591  and  CB_594
REMARK  344  A    between atoms: CB_594  and  CG_595
REMARK  345  A    between atoms: CZ_600  and  OH_601
REMARK  346  A    between atoms: N_602  and  CA_603
REMARK  347  A    between atoms: CA_603  and  C_604
REMARK  348  A    between atoms: CA_603  and  CB_606
REMARK  349  A    between atoms: CB_606  and  CG_607
REMARK  350  A    between atoms: N_613  and  CA_614
REMARK  351  A    between atoms: CA_614  and  C_615
REMARK  352  A    between atoms: CA_614  and  CB_617
REMARK  353  A    between atoms: CB_617  and  CG_618
REMARK  354  A    between atoms: N_623  and  CA_624
REMARK  355  A    between atoms: CA_624  and  C_625
REMARK  356  A    between atoms: CA_624  and  CB_627
REMARK  357  A    between atoms: CB_627  and  CG_628
REMARK  358  A    between atoms: N_631  and  CA_632
REMARK  359  A    between atoms: CA_632  and  C_633
REMARK  360  A    between atoms: CA_632  and  CB_635
REMARK  361  A    between atoms: N_636  and  CA_637
REMARK  362  A    between atoms: CA_637  and  C_638
REMARK  363  A    between atoms: CA_637  and  CB_640
REMARK  364  A    between atoms: CB_640  and  OG1_641
REMARK  365  A    between atoms: CB_640  and  CG2_642
REMARK  366  A    between atoms: N_643  and  CA_644
REMARK  367  A    between atoms: CA_644  and  C_645
REMARK  368  A    between atoms: CA_644  and  CB_647
REMARK  369  A    between atoms: CB_647  and  CG_648
REMARK  370  A    between atoms: CG_648  and  CD_649
REMARK  371  A    between atoms: CD_649  and  NE_650
REMARK  372  A    between atoms: N_654  and  CA_655
REMARK  373  A    between atoms: CA_655  and  C_656
REMARK  374  A    between atoms: CA_655  and  CB_658
REMARK  375  A    between atoms: CB_658  and  CG1_659
REMARK  376  A    between atoms: CB_658  and  CG2_660
REMARK  377  A    between atoms: N_661  and  CA_662
REMARK  378  A    between atoms: CA_662  and  C_663
REMARK  379  A    between atoms: CA_662  and  CB_665
REMARK  380  A    between atoms: CB_665  and  CG_666
REMARK  381  A    between atoms: CZ_671  and  OH_672
REMARK  382  A    between atoms: N_673  and  CA_674
REMARK  383  A    between atoms: CA_674  and  C_675
REMARK  384  A    between atoms: CA_674  and  CB_677
REMARK  385  A    between atoms: CB_677  and  CG_678
REMARK  386  A    between atoms: CG_678  and  CD2_679
REMARK  387  A    between atoms: CG_678  and  CD1_680
REMARK  388  A    between atoms: N_681  and  CA_682
REMARK  389  A    between atoms: CA_682  and  C_683
REMARK  390  A    between atoms: CA_682  and  CB_685
REMARK  391  A    between atoms: CB_685  and  CG1_686
REMARK  392  A    between atoms: CB_685  and  CG2_687
REMARK  393  A    between atoms: CG1_686  and  CD1_688
REMARK  394  A    between atoms: N_689  and  CA_690
REMARK  395  A    between atoms: CA_690  and  C_691
REMARK  396  A    between atoms: CA_690  and  CB_693
REMARK  397  A    between atoms: CB_693  and  CG_694
REMARK  398  A    between atoms: CG_694  and  CD2_695
REMARK  399  A    between atoms: CG_694  and  CD1_696
REMARK  400  A    between atoms: N_697  and  CA_698
REMARK  401  A    between atoms: CA_698  and  C_699
REMARK  402  A    between atoms: CA_698  and  CB_701
REMARK  403  A    between atoms: CB_701  and  CG_702
REMARK  404  A    between atoms: CG_702  and  CD_703
REMARK  405  A    between atoms: N_706  and  CA_707
REMARK  406  A    between atoms: CA_707  and  C_708
REMARK  407  A    between atoms: CA_707  and  CB_710
REMARK  408  A    between atoms: CB_710  and  CG_711
REMARK  409  A    between atoms: CZ_716  and  OH_717
REMARK  410  A    between atoms: N_718  and  CA_719
REMARK  411  A    between atoms: CA_719  and  C_720
REMARK  412  A    between atoms: CA_719  and  CB_722
REMARK  413  A    between atoms: CA_724  and  C_725
REMARK  414  A    between atoms: N_730  and  CA_731
REMARK  415  A    between atoms: CA_731  and  C_732
REMARK  416  A    between atoms: CA_731  and  CB_734
REMARK  417  A    between atoms: CB_734  and  CG_735
REMARK  418  A    between atoms: CG_735  and  CD1_736
REMARK  419  A    between atoms: CG_735  and  CD2_737
REMARK  420  A    between atoms: N_738  and  CA_739
REMARK  421  A    between atoms: CA_739  and  C_740
REMARK  422  A    between atoms: N_742  and  CA_743
REMARK  423  A    between atoms: CA_743  and  C_744
REMARK  424  A    between atoms: CA_743  and  CB_746
REMARK  425  A    between atoms: CB_746  and  OG1_747
REMARK  426  A    between atoms: CB_746  and  CG2_748
REMARK  427  A    between atoms: N_749  and  CA_750
REMARK  428  A    between atoms: CA_750  and  C_751
REMARK  429  A    between atoms: CA_750  and  CB_753
REMARK  430  A    between atoms: CB_753  and  CG2_754
REMARK  431  A    between atoms: CB_753  and  CG1_755
REMARK  432  A    between atoms: N_756  and  CA_757
REMARK  433  A    between atoms: CA_757  and  C_758
REMARK  434  A    between atoms: CA_757  and  CB_760
REMARK  435  A    between atoms: CB_760  and  CG_761
REMARK  436  A    between atoms: CZ_766  and  OH_767
REMARK  437  A    between atoms: N_768  and  C_769
REMARK  438  A    between atoms: C_769  and  C_770
REMARK  439  A    between atoms: C_769  and  C_772
REMARK  440  A    between atoms: C_772  and  C_773
REMARK  441  A    between atoms: N_774  and  CA_775
REMARK  442  A    between atoms: CA_775  and  C_776
REMARK  443  A    between atoms: CA_775  and  CB_778
REMARK  444  A    between atoms: CB_778  and  CG_779
REMARK  445  A    between atoms: CG_779  and  CD_780
REMARK  446  A    between atoms: N_783  and  CA_784
REMARK  447  A    between atoms: CA_784  and  C_785
REMARK  448  A    between atoms: CA_784  and  CB_787
REMARK  449  A    between atoms: CB_787  and  CG_788
REMARK  450  A    between atoms: CG_788  and  CD2_789
REMARK  451  A    between atoms: CG_788  and  CD1_790
REMARK  452  A    between atoms: N_791  and  CA_792
REMARK  453  A    between atoms: CA_792  and  C_793
REMARK  454  A    between atoms: CA_792  and  CB_795
REMARK  455  A    between atoms: CB_795  and  CG_796
REMARK  456  A    between atoms: CG_796  and  CD_797
REMARK  457  A    between atoms: N_800  and  CA_801
REMARK  458  A    between atoms: CA_801  and  C_802
REMARK  459  A    between atoms: CA_801  and  CB_804
REMARK  460  A    between atoms: CB_804  and  CG_805
REMARK  461  A    between atoms: CG_805  and  CD_806
REMARK  462  A    between atoms: CD_806  and  CE_807
REMARK  463  A    between atoms: CE_807  and  NZ_808
REMARK  464  A    between atoms: N_809  and  CA_810
REMARK  465  A    between atoms: CA_810  and  C_811
REMARK  466  A    between atoms: CA_810  and  CB_813
REMARK  467  A    between atoms: CB_813  and  CG_814
REMARK  468  A    between atoms: CG_814  and  CD1_815
REMARK  469  A    between atoms: CG_814  and  CD2_816
REMARK  470  A    between atoms: N_817  and  CA_818
REMARK  471  A    between atoms: CA_818  and  C_819
REMARK  472  A    between atoms: CA_818  and  CB_821
REMARK  473  A    between atoms: CB_821  and  OG_822
REMARK  474  A    between atoms: N_823  and  CA_824
REMARK  475  A    between atoms: CA_824  and  C_825
REMARK  476  A    between atoms: CA_824  and  CB_827
REMARK  477  A    between atoms: CB_827  and  CG_828
REMARK  478  A    between atoms: CG_828  and  CD_829
REMARK  479  A    between atoms: CD_829  and  CE_830
REMARK  480  A    between atoms: CE_830  and  NZ_831
REMARK  481  A    between atoms: N_832  and  CA_833
REMARK  482  A    between atoms: CA_833  and  C_834
REMARK  483  A    between atoms: CA_833  and  CB_836
REMARK  484  A    between atoms: CB_836  and  CG_837
REMARK  485  A    between atoms: N_843  and  CA_844
REMARK  486  A    between atoms: CA_844  and  C_845
REMARK  487  A    between atoms: CA_844  and  CB_847
REMARK  488  A    between atoms: CB_847  and  CG_848
REMARK  489  A    between atoms: N_851  and  CA_852
REMARK  490  A    between atoms: CA_852  and  C_853
REMARK  491  A    between atoms: CA_852  and  CB_855
REMARK  492  A    between atoms: CB_855  and  CG_856
REMARK  493  A    between atoms: CG_856  and  CD_857
REMARK  494  A    between atoms: N_860  and  CA_861
REMARK  495  A    between atoms: CA_861  and  C_862
REMARK  496  A    between atoms: CA_861  and  CB_864
REMARK  497  A    between atoms: CB_864  and  CG_865
REMARK  498  A    between atoms: CG_865  and  CD_866
REMARK  499  A    between atoms: N_869  and  CA_870
REMARK  500  A    between atoms: CA_870  and  C_871
REMARK  501  A    between atoms: CA_870  and  CB_873
REMARK  502  A    between atoms: CB_873  and  CG_874
REMARK  503  A    between atoms: CG_874  and  CD_875
REMARK  504  A    between atoms: CD_875  and  NE_876
REMARK  505  A    between atoms: N_880  and  CA_881
REMARK  506  A    between atoms: CA_881  and  C_882
REMARK  507  A    between atoms: CA_881  and  CB_884
REMARK  508  A    between atoms: CB_884  and  OG1_885
REMARK  509  A    between atoms: CB_884  and  CG2_886
REMARK  510  A    between atoms: N_887  and  CA_888
REMARK  511  A    between atoms: CA_888  and  C_889
REMARK  512  A    between atoms: CA_888  and  CB_891
REMARK  513  A    between atoms: N_892  and  CA_893
REMARK  514  A    between atoms: CA_893  and  C_894
REMARK  515  A    between atoms: CA_893  and  CB_896
REMARK  516  A    between atoms: CB_896  and  OG1_897
REMARK  517  A    between atoms: CB_896  and  CG2_898
REMARK  518  A    between atoms: N_899  and  CA_900
REMARK  519  A    between atoms: CA_900  and  C_901
REMARK  520  A    between atoms: CA_900  and  CB_903
REMARK  521  A    between atoms: CB_903  and  CG_904
REMARK  522  A    between atoms: CZ_909  and  OH_910
REMARK  523  A    between atoms: N_911  and  CA_912
REMARK  524  A    between atoms: CA_912  and  C_913
REMARK  525  A    between atoms: CA_912  and  CB_915
REMARK  526  A    between atoms: CB_915  and  CG1_916
REMARK  527  A    between atoms: CB_915  and  CG2_917
REMARK  528  A    between atoms: CG1_916  and  CD1_918
REMARK  529  A    between atoms: N_919  and  CA_920
REMARK  530  A    between atoms: CA_920  and  C_921
REMARK  531  A    between atoms: CA_920  and  CB_923
REMARK  532  A    between atoms: CB_923  and  OG1_924
REMARK  533  A    between atoms: CB_923  and  CG2_925
REMARK  534  A    between atoms: N_926  and  CA_927
REMARK  535  A    between atoms: CA_927  and  C_928
REMARK  536  A    between atoms: CA_927  and  CB_930
REMARK  537  A    between atoms: CB_930  and  CG_931
REMARK  538  A    between atoms: CG_931  and  CD_932
REMARK  539  A    between atoms: N_935  and  CA_936
REMARK  540  A    between atoms: CA_936  and  C_937
REMARK  541  A    between atoms: CA_936  and  CB_939
REMARK  542  A    between atoms: CB_939  and  CG_940
REMARK  543  A    between atoms: CG_940  and  CD2_941
REMARK  544  A    between atoms: CG_940  and  CD1_942
REMARK  545  A    between atoms: N_943  and  CA_944
REMARK  546  A    between atoms: CA_944  and  C_945
REMARK  547  A    between atoms: CA_944  and  CB_947
REMARK  548  A    between atoms: N_948  and  CA_949
REMARK  549  A    between atoms: CA_949  and  C_950
REMARK  550  A    between atoms: CA_949  and  CB_952
REMARK  551  A    between atoms: CB_952  and  CG_953
REMARK  552  A    between atoms: N_956  and  CA_957
REMARK  553  A    between atoms: CA_957  and  C_958
REMARK  554  A    between atoms: CA_957  and  CB_960
REMARK  555  A    between atoms: N_961  and  CA_962
REMARK  556  A    between atoms: CA_962  and  C_963
REMARK  557  A    between atoms: CA_962  and  CB_965
REMARK  558  A    between atoms: CB_965  and  CG_966
REMARK  559  A    between atoms: CG_966  and  CD2_967
REMARK  560  A    between atoms: CG_966  and  CD1_968
REMARK  561  A    between atoms: N_969  and  CA_970
REMARK  562  A    between atoms: CA_970  and  C_971
REMARK  563  A    between atoms: CA_970  and  CB_973
REMARK  564  A    between atoms: CB_973  and  OG_974
REMARK  565  A    between atoms: N_975  and  CA_976
REMARK  566  A    between atoms: CA_976  and  C_977
REMARK  567  A    between atoms: CA_976  and  CB_979
REMARK  568  A    between atoms: CB_979  and  CG_980
REMARK  569  A    between atoms: CZ_985  and  OH_986
REMARK  570  A    between atoms: N_987  and  CA_988
REMARK  571  A    between atoms: CA_988  and  C_989
REMARK  572  A    between atoms: CA_988  and  CB_991
REMARK  573  A    between atoms: CB_991  and  SG_992
REMARK  574  A    between atoms: N_993  and  CA_994
REMARK  575  A    between atoms: CA_994  and  C_995
REMARK  576  A    between atoms: CA_994  and  CB_997
REMARK  577  A    between atoms: CB_997  and  CG_998
REMARK  578  A    between atoms: N_1003  and  C_1004
REMARK  579  A    between atoms: C_1004  and  C_1005
REMARK  580  A    between atoms: C_1004  and  C_1007
REMARK  581  A    between atoms: C_1007  and  O_1008
REMARK  582  A    between atoms: N_1009  and  C_1010
REMARK  583  A    between atoms: C_1010  and  C_1011
REMARK  584  A    between atoms: C_1010  and  C_1013
REMARK  585  A    between atoms: C_1013  and  C_1014
REMARK  586  A    between atoms: C_1014  and  C_1015
REMARK  587  A    between atoms: C_1015  and  C_1016
REMARK  588  A    between atoms: C_1016  and  N_1017
REMARK  589  A    between atoms: N_1018  and  C_1019
REMARK  590  A    between atoms: C_1020  and  C_1021
REMARK  591  A    between atoms: C_1020  and  C_1024
REMARK  592  A    between atoms: C_1023  and  C_1026
REMARK  593  A    between atoms: C_1025  and  C_1026
REMARK  594  A    between atoms: C_1027  and  N_1029
REMARK  595  A    between atoms: C_1028  and  N_1030
REMARK  596  A    between atoms: N_1037  and  C_1038
REMARK  597  A    between atoms: C_1038  and  C_1039
REMARK  598  A    between atoms: C_1038  and  C_1041
REMARK  599  A    between atoms: C_1041  and  C_1042
REMARK  600  A    between atoms: C_1041  and  C_1043
REMARK  601  A    between atoms: N_1044  and  C_1045
REMARK  602  A    between atoms: C_1045  and  C_1046
REMARK  603  A    between atoms: C_1045  and  C_1048
REMARK  604  A    between atoms: C_1048  and  C_1049
REMARK  605  A    between atoms: C_1048  and  C_1050
REMARK  606  A    between atoms: C_1049  and  C_1051
REMARK  607  A    between atoms: N_1052  and  C_1053
REMARK  608  A    between atoms: C_1053  and  C_1054
REMARK  609  A    between atoms: C_1053  and  C_1056
REMARK  610  A    between atoms: C_1056  and  C_1057
REMARK  611  A    between atoms: N_1062  and  C_1063
REMARK  612  A    between atoms: C_1063  and  C_1064
REMARK  613  A    between atoms: C_1063  and  C_1066
REMARK  614  A    between atoms: C_1066  and  C_1067
REMARK  615  A    between atoms: C_1067  and  C_1068
REMARK  616  A    between atoms: C_1068  and  N_1069
REMARK  617  A    between atoms: N_1073  and  C_1074
REMARK  618  A    between atoms: C_1074  and  C_1077
REMARK  619  A    between atoms: C_1077  and  C_1078
REMARK  620  A    between atoms: N_1081  and  C_1084
REMARK  621  A    between atoms: C_1083  and  C_1085
REMARK  622  A    between atoms: C_1085  and  C_1086
REMARK  623  A    between atoms: C_1085  and  O_1087
REMARK  624  A    between atoms: C_1085  and  N_1097
REMARK  625  A    between atoms: C_1089  and  C_1094
REMARK  626  A    between atoms: C_1090  and  C_1091
REMARK  627  A    between atoms: C_1093  and  C_1094
REMARK  628  A    between atoms: C_1098  and  C_1099
REMARK  629  A    between atoms: C_1098  and  C_1101
REMARK  630  A    between atoms: C_1101  and  C_1102
REMARK  631  A    between atoms: C_1102  and  C_1103
REMARK  632  A    between atoms: C_1103  and  C_1104
REMARK  633  A    between atoms: C_1104  and  N_1105
REMARK  634  A    between atoms: C_1107  and  C_1108
REMARK  635  A    between atoms: N_1113  and  CA_1114
REMARK  636  A    between atoms: CA_1114  and  C_1115
REMARK  637  A    between atoms: CA_1114  and  CB_1117
REMARK  638  A    between atoms: CB_1117  and  CG_1118
REMARK  639  A    between atoms: CG_1118  and  CD_1119
REMARK  640  A    between atoms: N_1122  and  CA_1123
REMARK  641  A    between atoms: CA_1123  and  C_1124
REMARK  642  A    between atoms: CA_1123  and  CB_1126
REMARK  643  A    between atoms: CB_1126  and  CG_1127
REMARK  644  A    between atoms: N_1130  and  CA_1131
REMARK  645  A    between atoms: CA_1131  and  C_1132
REMARK  646  A    between atoms: CA_1131  and  CB_1134
REMARK  647  A    between atoms: CB_1134  and  CG_1135
REMARK  648  A    between atoms: CG_1135  and  CD2_1136
REMARK  649  A    between atoms: CG_1135  and  CD1_1137
REMARK  650  A    between atoms: N_1138  and  CA_1139
REMARK  651  A    between atoms: CA_1139  and  C_1140
REMARK  652  A    between atoms: CA_1139  and  CB_1142
REMARK  653  A    between atoms: CB_1142  and  CG_1143
REMARK  654  A    between atoms: CG_1143  and  CD1_1144
REMARK  655  A    between atoms: CG_1143  and  CD2_1145
REMARK  656  A    between atoms: N_1146  and  CA_1147
REMARK  657  A    between atoms: CA_1147  and  C_1148
REMARK  658  A    between atoms: CA_1147  and  CB_1150
REMARK  659  A    between atoms: CB_1150  and  CG_1151
REMARK  660  A    between atoms: CG_1151  and  CD2_1152
REMARK  661  A    between atoms: CG_1151  and  CD1_1153
REMARK  662  A    between atoms: N_1154  and  CA_1155
REMARK  663  A    between atoms: CA_1155  and  C_1156
REMARK  664  A    between atoms: N_1158  and  CA_1159
REMARK  665  A    between atoms: CA_1159  and  C_1160
REMARK  666  A    between atoms: CA_1159  and  CB_1162
REMARK  667  A    between atoms: CB_1162  and  OG_1163
REMARK  668  A    between atoms: N_1164  and  CA_1165
REMARK  669  A    between atoms: CA_1165  and  C_1166
REMARK  670  A    between atoms: CA_1165  and  CB_1168
REMARK  671  A    between atoms: N_1169  and  CA_1170
REMARK  672  A    between atoms: CA_1170  and  C_1171
REMARK  673  A    between atoms: N_1173  and  CA_1174
REMARK  674  A    between atoms: CA_1174  and  C_1175
REMARK  675  A    between atoms: CA_1174  and  CB_1177
REMARK  676  A    between atoms: CB_1177  and  CG_1178
REMARK  677  A    between atoms: CG_1178  and  CD_1179
REMARK  678  A    between atoms: N_1182  and  CA_1183
REMARK  679  A    between atoms: CA_1183  and  C_1184
REMARK  680  A    between atoms: CA_1183  and  CB_1186
REMARK  681  A    between atoms: CB_1186  and  CG_1187
REMARK  682  A    between atoms: CG_1187  and  CD2_1188
REMARK  683  A    between atoms: CG_1187  and  CD1_1189
REMARK  684  A    between atoms: N_1190  and  CA_1191
REMARK  685  A    between atoms: CA_1191  and  C_1192
REMARK  686  A    between atoms: CA_1191  and  CB_1194
REMARK  687  A    between atoms: CB_1194  and  CG_1195
REMARK  688  A    between atoms: CG_1195  and  CD_1196
REMARK  689  A    between atoms: CD_1196  and  CE_1197
REMARK  690  A    between atoms: CE_1197  and  NZ_1198
REMARK  691  A    between atoms: N_1199  and  CA_1200
REMARK  692  A    between atoms: CA_1200  and  C_1201
REMARK  693  A    between atoms: CA_1200  and  CB_1203
REMARK  694  A    between atoms: CB_1203  and  CG1_1204
REMARK  695  A    between atoms: CB_1203  and  CG2_1205
REMARK  696  A    between atoms: CG1_1204  and  CD1_1206
REMARK  697  A    between atoms: N_1207  and  CA_1208
REMARK  698  A    between atoms: CA_1208  and  C_1209
REMARK  699  A    between atoms: CA_1208  and  CB_1211
REMARK  700  A    between atoms: N_1212  and  CA_1213
REMARK  701  A    between atoms: CA_1213  and  C_1214
REMARK  702  A    between atoms: CA_1213  and  CB_1216
REMARK  703  A    between atoms: CB_1216  and  CG_1217
REMARK  704  A    between atoms: N_1220  and  CA_1221
REMARK  705  A    between atoms: CA_1221  and  C_1222
REMARK  706  A    between atoms: CA_1221  and  CB_1224
REMARK  707  A    between atoms: CB_1224  and  CG_1225
REMARK  708  A    between atoms: N_1231  and  CA_1232
REMARK  709  A    between atoms: CA_1232  and  C_1233
REMARK  710  A    between atoms: N_1235  and  CA_1236
REMARK  711  A    between atoms: CA_1236  and  C_1237
REMARK  712  A    between atoms: CA_1236  and  CB_1239
REMARK  713  A    between atoms: CB_1239  and  CG_1240
REMARK  714  A    between atoms: N_1249  and  CA_1250
REMARK  715  A    between atoms: CA_1250  and  C_1251
REMARK  716  A    between atoms: CA_1250  and  CB_1253
REMARK  717  A    between atoms: CB_1253  and  OG_1254
REMARK  718  A    between atoms: N_1255  and  CA_1256
REMARK  719  A    between atoms: CA_1256  and  C_1257
REMARK  720  A    between atoms: CA_1256  and  CB_1259
REMARK  721  A    between atoms: CB_1259  and  CG2_1260
REMARK  722  A    between atoms: CB_1259  and  CG1_1261
REMARK  723  A    between atoms: N_1262  and  CA_1263
REMARK  724  A    between atoms: CA_1263  and  C_1264
REMARK  725  A    between atoms: CA_1263  and  CB_1266
REMARK  726  A    between atoms: CB_1266  and  CG_1267
REMARK  727  A    between atoms: N_1272  and  CA_1273
REMARK  728  A    between atoms: CA_1273  and  C_1274
REMARK  729  A    between atoms: CA_1273  and  CB_1276
REMARK  730  A    between atoms: CA_1278  and  C_1279
REMARK  731  A    between atoms: N_1284  and  CA_1285
REMARK  732  A    between atoms: CA_1285  and  C_1286
REMARK  733  A    between atoms: CA_1285  and  CB_1288
REMARK  734  A    between atoms: CB_1288  and  OG_1289
REMARK  735  A    between atoms: N_1290  and  CA_1291
REMARK  736  A    between atoms: CA_1291  and  C_1292
REMARK  737  A    between atoms: CA_1291  and  CB_1294
REMARK  738  A    between atoms: CB_1294  and  OG_1295
REMARK  739  A    between atoms: N_1296  and  C_1297
REMARK  740  A    between atoms: C_1297  and  C_1298
REMARK  741  A    between atoms: C_1297  and  C_1300
REMARK  742  A    between atoms: C_1300  and  C_1301
REMARK  743  A    between atoms: C_1301  and  C_1302
REMARK  744  A    between atoms: N_1303  and  CA_1304
REMARK  745  A    between atoms: CA_1304  and  C_1305
REMARK  746  A    between atoms: CA_1304  and  CB_1307
REMARK  747  A    between atoms: CB_1307  and  CG_1308
REMARK  748  A    between atoms: CG_1308  and  CD_1309
REMARK  749  A    between atoms: CD_1309  and  NE_1310
REMARK  750  A    between atoms: N_1314  and  CA_1315
REMARK  751  A    between atoms: CA_1315  and  C_1316
REMARK  752  A    between atoms: CA_1315  and  CB_1318
REMARK  753  A    between atoms: CB_1318  and  OG1_1319
REMARK  754  A    between atoms: CB_1318  and  CG2_1320
REMARK  755  A    between atoms: N_1321  and  C_1322
REMARK  756  A    between atoms: C_1322  and  C_1323
REMARK  757  A    between atoms: C_1322  and  C_1325
REMARK  758  A    between atoms: C_1325  and  C_1326
REMARK  759  A    between atoms: C_1326  and  C_1327
REMARK  760  A    between atoms: C_1326  and  C_1328
REMARK  761  A    between atoms: N_1329  and  C_1330
REMARK  762  A    between atoms: C_1330  and  C_1331
REMARK  763  A    between atoms: C_1330  and  C_1333
REMARK  764  A    between atoms: N_1334  and  C_1335
REMARK  765  A    between atoms: C_1335  and  C_1336
REMARK  766  A    between atoms: N_1338  and  C_1339
REMARK  767  A    between atoms: C_1339  and  C_1340
REMARK  768  A    between atoms: C_1339  and  C_1342
REMARK  769  A    between atoms: C_1342  and  O_1343
REMARK  770  A    between atoms: C_1342  and  C_1344
REMARK  771  A    between atoms: N_1345  and  C_1346
REMARK  772  A    between atoms: C_1346  and  C_1347
REMARK  773  A    between atoms: C_1346  and  C_1349
REMARK  774  A    between atoms: C_1349  and  C_1350
REMARK  775  A    between atoms: C_1350  and  C_1351
REMARK  776  A    between atoms: C_1350  and  C_1352
REMARK  777  A    between atoms: N_1353  and  C_1354
REMARK  778  A    between atoms: C_1354  and  C_1355
REMARK  779  A    between atoms: C_1354  and  C_1357
REMARK  780  A    between atoms: C_1357  and  C_1358
REMARK  781  A    between atoms: N_1361  and  C_1362
REMARK  782  A    between atoms: C_1362  and  C_1363
REMARK  783  A    between atoms: C_1362  and  C_1365
REMARK  784  A    between atoms: C_1365  and  C_1366
REMARK  785  A    between atoms: C_1371  and  O_1372
REMARK  786  A    between atoms: N_1373  and  C_1374
REMARK  787  A    between atoms: C_1374  and  C_1375
REMARK  788  A    between atoms: C_1374  and  C_1377
REMARK  789  A    between atoms: C_1377  and  C_1378
REMARK  790  A    between atoms: C_1378  and  C_1379
REMARK  791  A    between atoms: C_1378  and  C_1380
REMARK  792  A    between atoms: C_1382  and  C_1383
REMARK  793  A    between atoms: C_1389  and  C_1390
REMARK  794  A    between atoms: N_1395  and  C_1396
REMARK  795  A    between atoms: C_1396  and  C_1399
REMARK  796  A    between atoms: C_1399  and  C_1400
REMARK  797  A    between atoms: C_1400  and  C_1401
REMARK  798  A    between atoms: N_1405  and  C_1406
REMARK  799  A    between atoms: C_1407  and  C_1412
REMARK  800  A    between atoms: C_1408  and  O_1410
REMARK  801  A    between atoms: C_1409  and  O_1411
REMARK  802  A    between atoms: O_1410  and  O_1411
REMARK  803  A    between atoms: C_1412  and  C_1414
REMARK  804  A    between atoms: C_1413  and  C_1415
REMARK  805  A    between atoms: S_1416  and  C_1418
REMARK  806  A    between atoms: S_1417  and  C_1419
REMARK  807  A    between atoms: C_1418  and  C_1419
REMARK  808  A    between atoms: N_1420  and  CA_1421
REMARK  809  A    between atoms: CA_1421  and  C_1422
REMARK  810  A    between atoms: CA_1421  and  CB_1424
REMARK  811  A    between atoms: CB_1424  and  CG1_1425
REMARK  812  A    between atoms: CB_1424  and  CG2_1426
REMARK  813  A    between atoms: CG1_1425  and  CD1_1427
REMARK  814  A    between atoms: N_1428  and  CA_1429
REMARK  815  A    between atoms: CA_1429  and  C_1430
REMARK  816  A    between atoms: CA_1429  and  CB_1432
REMARK  817  A    between atoms: CB_1432  and  CG_1433
REMARK  818  A    between atoms: CG_1433  and  CD_1434
REMARK  819  A    between atoms: N_1437  and  CA_1438
REMARK  820  A    between atoms: CA_1438  and  C_1439
REMARK  821  A    between atoms: N_1441  and  CA_1442
REMARK  822  A    between atoms: CA_1442  and  C_1443
REMARK  823  A    between atoms: CA_1442  and  CB_1445
REMARK  824  A    between atoms: CB_1445  and  CG_1446
REMARK  825  A    between atoms: CG_1446  and  CD_1447
REMARK  826  A    between atoms: CD_1447  and  NE_1448
REMARK  827  A    between atoms: N_1452  and  C_1453
REMARK  828  A    between atoms: C_1453  and  C_1454
REMARK  829  A    between atoms: C_1453  and  C_1456
REMARK  830  A    between atoms: C_1456  and  C_1457
REMARK  831  A    between atoms: C_1457  and  S_1458
REMARK  832  A    between atoms: N_1459  and  CA_1460
REMARK  833  A    between atoms: CA_1460  and  C_1461
REMARK  834  A    between atoms: CA_1460  and  CB_1463
REMARK  835  A    between atoms: CB_1463  and  CG_1464
REMARK  836  A    between atoms: N_1469  and  CA_1470
REMARK  837  A    between atoms: CA_1470  and  C_1471
REMARK  838  A    between atoms: CA_1470  and  CB_1473
REMARK  839  A    between atoms: CB_1473  and  CG_1474
REMARK  840  A    between atoms: N_1477  and  CA_1478
REMARK  841  A    between atoms: CA_1478  and  C_1479
REMARK  842  A    between atoms: CA_1478  and  CB_1481
REMARK  843  A    between atoms: CB_1481  and  CG_1482
REMARK  844  A    between atoms: CG_1482  and  CD_1483
REMARK  845  A    between atoms: N_1486  and  CA_1487
REMARK  846  A    between atoms: CA_1487  and  C_1488
REMARK  847  A    between atoms: CA_1487  and  CB_1490
REMARK  848  A    between atoms: CB_1490  and  CG_1491
REMARK  849  A    between atoms: CG_1491  and  CD_1492
REMARK  850  A    between atoms: CD_1492  and  CE_1493
REMARK  851  A    between atoms: CE_1493  and  NZ_1494
REMARK  852  A    between atoms: N_1495  and  CA_1496
REMARK  853  A    between atoms: CA_1496  and  C_1497
REMARK  854  A    between atoms: CA_1496  and  CB_1499
REMARK  855  A    between atoms: CB_1499  and  CG2_1500
REMARK  856  A    between atoms: CB_1499  and  CG1_1501
REMARK  857  A    between atoms: N_1502  and  CA_1503
REMARK  858  A    between atoms: CA_1503  and  C_1504
REMARK  859  A    between atoms: CA_1503  and  CB_1506
REMARK  860  A    between atoms: CB_1506  and  CG_1507
REMARK  861  A    between atoms: N_1510  and  CA_1511
REMARK  862  A    between atoms: CA_1511  and  C_1512
REMARK  863  A    between atoms: CA_1511  and  CB_1514
REMARK  864  A    between atoms: CB_1514  and  CG_1515
REMARK  865  A    between atoms: CG_1515  and  CD2_1516
REMARK  866  A    between atoms: CG_1515  and  CD1_1517
REMARK  867  A    between atoms: N_1518  and  CA_1519
REMARK  868  A    between atoms: CA_1519  and  C_1520
REMARK  869  A    between atoms: CA_1519  and  CB_1522
REMARK  870  A    between atoms: CB_1522  and  CG_1523
REMARK  871  A    between atoms: N_1532  and  CA_1533
REMARK  872  A    between atoms: CA_1533  and  C_1534
REMARK  873  A    between atoms: CA_1533  and  CB_1536
REMARK  874  A    between atoms: CB_1536  and  OG_1537
REMARK  875  A    between atoms: N_1538  and  CA_1539
REMARK  876  A    between atoms: CA_1539  and  C_1540
REMARK  877  A    between atoms: CA_1539  and  CB_1542
REMARK  878  A    between atoms: CB_1542  and  CG_1543
REMARK  879  A    between atoms: CG_1543  and  CD2_1544
REMARK  880  A    between atoms: CG_1543  and  CD1_1545
REMARK  881  A    between atoms: N_1546  and  CA_1547
REMARK  882  A    between atoms: CA_1547  and  C_1548
REMARK  883  A    between atoms: N_1550  and  CA_1551
REMARK  884  A    between atoms: CA_1551  and  C_1552
REMARK  885  A    between atoms: CA_1551  and  CB_1554
REMARK  886  A    between atoms: CB_1554  and  CG2_1555
REMARK  887  A    between atoms: CB_1554  and  CG1_1556
REMARK  888  A    between atoms: N_1557  and  CA_1558
REMARK  889  A    between atoms: CA_1558  and  C_1559
REMARK  890  A    between atoms: CA_1558  and  CB_1561
REMARK  891  A    between atoms: CB_1561  and  CG_1562
REMARK  892  A    between atoms: CG_1562  and  CD1_1563
REMARK  893  A    between atoms: CG_1562  and  CD2_1564
REMARK  894  A    between atoms: N_1565  and  CA_1566
REMARK  895  A    between atoms: CA_1566  and  C_1567
REMARK  896  A    between atoms: CA_1566  and  CB_1569
REMARK  897  A    between atoms: CB_1569  and  SG_1570
REMARK  898  A    between atoms: N_1571  and  CA_1572
REMARK  899  A    between atoms: CA_1572  and  C_1573
REMARK  900  A    between atoms: CA_1572  and  CB_1575
REMARK  901  A    between atoms: CB_1575  and  CG_1576
REMARK  902  A    between atoms: CZ_1581  and  OH_1582
REMARK  903  A    between atoms: N_1583  and  CA_1584
REMARK  904  A    between atoms: CA_1584  and  C_1585
REMARK  905  A    between atoms: CA_1584  and  CB_1587
REMARK  906  A    between atoms: CB_1587  and  CG_1588
REMARK  907  A    between atoms: CG_1588  and  CD_1589
REMARK  908  A    between atoms: N_1592  and  CA_1593
REMARK  909  A    between atoms: CA_1593  and  C_1594
REMARK  910  A    between atoms: CA_1593  and  CB_1596
REMARK  911  A    between atoms: CB_1596  and  CG_1597
REMARK  912  A    between atoms: N_1603  and  CA_1604
REMARK  913  A    between atoms: CA_1604  and  C_1605
REMARK  914  A    between atoms: CA_1604  and  CB_1607
REMARK  915  A    between atoms: CB_1607  and  CG_1608
REMARK  916  A    between atoms: CG_1608  and  CD1_1609
REMARK  917  A    between atoms: CG_1608  and  CD2_1610
REMARK  918  A    between atoms: N_1611  and  CA_1612
REMARK  919  A    between atoms: CA_1612  and  C_1613
REMARK  920  A    between atoms: CA_1612  and  CB_1615
REMARK  921  A    between atoms: CB_1615  and  CG2_1616
REMARK  922  A    between atoms: CB_1615  and  CG1_1617
REMARK  923  A    between atoms: N_1618  and  CA_1619
REMARK  924  A    between atoms: CA_1619  and  C_1620
REMARK  925  A    between atoms: N_1622  and  C_1623
REMARK  926  A    between atoms: C_1623  and  C_1624
REMARK  927  A    between atoms: C_1623  and  C_1626
REMARK  928  A    between atoms: C_1626  and  C_1627
REMARK  929  A    between atoms: C_1627  and  C_1628
REMARK  930  A    between atoms: CA_1630  and  C_1631
REMARK  931  A    between atoms: CA_1637  and  C_1638
REMARK  932  A    between atoms: N_1643  and  CA_1644
REMARK  933  A    between atoms: CA_1644  and  C_1645
REMARK  934  A    between atoms: CA_1644  and  CB_1647
REMARK  935  A    between atoms: CB_1647  and  CG_1648
REMARK  936  A    between atoms: N_1654  and  CA_1655
REMARK  937  A    between atoms: CA_1655  and  C_1656
REMARK  938  A    between atoms: CA_1655  and  CB_1658
REMARK  939  A    between atoms: CB_1658  and  CG_1659
REMARK  940  A    between atoms: CG_1659  and  CD_1660
REMARK  941  A    between atoms: N_1663  and  CA_1664
REMARK  942  A    between atoms: CA_1664  and  C_1665
REMARK  943  A    between atoms: CA_1664  and  CB_1667
REMARK  944  A    between atoms: N_1668  and  CA_1669
REMARK  945  A    between atoms: CA_1669  and  C_1670
REMARK  946  A    between atoms: CA_1669  and  CB_1672
REMARK  947  A    between atoms: CB_1672  and  CG_1673
REMARK  948  A    between atoms: N_1676  and  CA_1677
REMARK  949  A    between atoms: CA_1677  and  C_1678
REMARK  950  A    between atoms: CA_1677  and  CB_1680
REMARK  951  A    between atoms: CB_1680  and  OG1_1681
REMARK  952  A    between atoms: CB_1680  and  CG2_1682
REMARK  953  A    between atoms: N_1683  and  CA_1684
REMARK  954  A    between atoms: CA_1684  and  C_1685
REMARK  955  A    between atoms: CA_1684  and  CB_1687
REMARK  956  A    between atoms: CB_1687  and  CG_1688
REMARK  957  A    between atoms: CZ_1693  and  OH_1694
REMARK  958  A    between atoms: N_1695  and  CA_1696
REMARK  959  A    between atoms: CA_1696  and  C_1697
REMARK  960  A    between atoms: CA_1696  and  CB_1699
REMARK  961  A    between atoms: CB_1699  and  CG_1700
REMARK  962  A    between atoms: CG_1700  and  CD_1701
REMARK  963  A    between atoms: N_1704  and  CA_1705
REMARK  964  A    between atoms: CA_1705  and  C_1706
REMARK  965  A    between atoms: CA_1705  and  CB_1708
REMARK  966  A    between atoms: CB_1708  and  CG_1709
REMARK  967  A    between atoms: CG_1709  and  CD_1710
REMARK  968  A    between atoms: N_1713  and  CA_1714
REMARK  969  A    between atoms: CA_1714  and  C_1715
REMARK  970  A    between atoms: CA_1714  and  CB_1717
REMARK  971  A    between atoms: CB_1717  and  OG1_1718
REMARK  972  A    between atoms: CB_1717  and  CG2_1719
REMARK  973  A    between atoms: N_1720  and  CA_1721
REMARK  974  A    between atoms: CA_1721  and  C_1722
REMARK  975  A    between atoms: CA_1721  and  CB_1724
REMARK  976  A    between atoms: CB_1724  and  CG_1725
REMARK  977  A    between atoms: CZ_1730  and  OH_1731
REMARK  978  A    between atoms: N_1732  and  CA_1733
REMARK  979  A    between atoms: CA_1733  and  C_1734
REMARK  980  A    between atoms: CA_1733  and  CB_1736
REMARK  981  A    between atoms: CB_1736  and  SG_1737
REMARK  982  A    between atoms: N_1738  and  C_1739
REMARK  983  A    between atoms: C_1739  and  C_1740
REMARK  984  A    between atoms: C_1739  and  C_1742
REMARK  985  A    between atoms: C_1742  and  C_1743
REMARK  986  A    between atoms: C_1743  and  C_1744
REMARK  987  A    between atoms: C_1744  and  N_1745
REMARK  988  A    between atoms: N_1746  and  CA_1747
REMARK  989  A    between atoms: CA_1747  and  C_1748
REMARK  990  A    between atoms: CA_1747  and  CB_1750
REMARK  991  A    between atoms: CB_1750  and  CG1_1751
REMARK  992  A    between atoms: CB_1750  and  CG2_1752
REMARK  993  A    between atoms: CG1_1751  and  CD1_1753
REMARK  994  A    between atoms: N_1754  and  C_1755
REMARK  995  A    between atoms: C_1755  and  C_1756
REMARK  996  A    between atoms: C_1755  and  C_1758
REMARK  997  A    between atoms: C_1758  and  O_1759
REMARK  998  A    between atoms: N_1760  and  C_1761
REMARK  999  A    between atoms: C_1761  and  C_1762
REMARK  1000  A    between atoms: C_1761  and  C_1764
REMARK  1001  A    between atoms: C_1764  and  C_1765
REMARK  1002  A    between atoms: C_1765  and  C_1766
REMARK  1003  A    between atoms: C_1766  and  N_1767
REMARK  1004  A    between atoms: N_1771  and  C_1772
REMARK  1005  A    between atoms: C_1772  and  C_1773
REMARK  1006  A    between atoms: C_1772  and  C_1775
REMARK  1007  A    between atoms: C_1775  and  C_1776
REMARK  1008  A    between atoms: C_1775  and  C_1777
REMARK  1009  A    between atoms: N_1778  and  C_1779
REMARK  1010  A    between atoms: C_1779  and  C_1780
REMARK  1011  A    between atoms: C_1779  and  C_1782
REMARK  1012  A    between atoms: C_1782  and  C_1783
REMARK  1013  A    between atoms: C_1783  and  C_1784
REMARK  1014  A    between atoms: N_1787  and  C_1788
REMARK  1015  A    between atoms: C_1788  and  C_1789
REMARK  1016  A    between atoms: C_1788  and  C_1791
REMARK  1017  A    between atoms: C_1791  and  C_1792
REMARK  1018  A    between atoms: N_1798  and  C_1799
REMARK  1019  A    between atoms: C_1799  and  C_1800
REMARK  1020  A    between atoms: C_1799  and  C_1802
REMARK  1021  A    between atoms: C_1802  and  O_1803
REMARK  1022  A    between atoms: C_1802  and  C_1804
REMARK  1023  A    between atoms: N_1805  and  C_1806
REMARK  1024  A    between atoms: C_1806  and  C_1807
REMARK  1025  A    between atoms: C_1806  and  C_1809
REMARK  1026  A    between atoms: C_1809  and  C_1810
REMARK  1027  A    between atoms: C_1817  and  C_1818
REMARK  1028  A    between atoms: N_1823  and  C_1824
REMARK  1029  A    between atoms: C_1824  and  C_1825
REMARK  1030  A    between atoms: C_1824  and  C_1827
REMARK  1031  A    between atoms: C_1827  and  C_1828
REMARK  1032  A    between atoms: N_1831  and  C_1832
REMARK  1033  A    between atoms: C_1832  and  C_1833
REMARK  1034  A    between atoms: C_1832  and  C_1835
REMARK  1035  A    between atoms: C_1835  and  C_1836
REMARK  1036  A    between atoms: N_1842  and  C_1843
REMARK  1037  A    between atoms: C_1843  and  C_1844
REMARK  1038  A    between atoms: C_1843  and  C_1846
REMARK  1039  A    between atoms: C_1846  and  C_1847
REMARK  1040  A    between atoms: C_1846  and  C_1848
REMARK  1041  A    between atoms: N_1849  and  C_1850
REMARK  1042  A    between atoms: C_1850  and  C_1851
REMARK  1043  A    between atoms: C_1850  and  C_1853
REMARK  1044  A    between atoms: C_1853  and  O_1854
REMARK  1045  A    between atoms: C_1853  and  C_1855
REMARK  1046  A    between atoms: N_1856  and  C_1857
REMARK  1047  A    between atoms: C_1858  and  C_1859
REMARK  1048  A    between atoms: C_1858  and  C_1861
REMARK  1049  A    between atoms: C_1862  and  C_1863
REMARK  1050  A    between atoms: C_1862  and  C_1864
REMARK  1051  A    between atoms: C_1863  and  C_1865
REMARK  1052  A    between atoms: N_1871  and  C_1872
REMARK  1053  A    between atoms: C_1872  and  C_1873
REMARK  1054  A    between atoms: N_1875  and  CA_1876
REMARK  1055  A    between atoms: CA_1876  and  C_1877
REMARK  1056  A    between atoms: CA_1876  and  CB_1879
REMARK  1057  A    between atoms: N_1880  and  CA_1881
REMARK  1058  A    between atoms: CA_1881  and  C_1882
REMARK  1059  A    between atoms: CA_1881  and  CB_1884
REMARK  1060  A    between atoms: CB_1884  and  CG_1885
REMARK  1061  A    between atoms: CG_1885  and  CD_1886
REMARK  1062  A    between atoms: CD_1886  and  NE_1887
REMARK  1063  A    between atoms: N_1891  and  CA_1892
REMARK  1064  A    between atoms: CA_1892  and  C_1893
REMARK  1065  A    between atoms: CA_1892  and  CB_1895
REMARK  1066  A    between atoms: CB_1895  and  CG_1896
REMARK  1067  A    between atoms: N_1899  and  CA_1900
REMARK  1068  A    between atoms: CA_1900  and  C_1901
REMARK  1069  A    between atoms: CA_1900  and  CB_1903
REMARK  1070  A    between atoms: CB_1903  and  CG_1904
REMARK  1071  A    between atoms: CG_1904  and  CD1_1905
REMARK  1072  A    between atoms: CG_1904  and  CD2_1906
REMARK  1073  A    between atoms: N_1907  and  CA_1908
REMARK  1074  A    between atoms: CA_1908  and  C_1909
REMARK  1075  A    between atoms: CA_1908  and  CB_1911
REMARK  1076  A    between atoms: CB_1911  and  CG1_1912
REMARK  1077  A    between atoms: CB_1911  and  CG2_1913
REMARK  1078  A    between atoms: CG1_1912  and  CD1_1914
REMARK  1079  A    between atoms: N_1915  and  CA_1916
REMARK  1080  A    between atoms: CA_1916  and  C_1917
REMARK  1081  A    between atoms: CA_1916  and  CB_1919
REMARK  1082  A    between atoms: CB_1919  and  OG_1920
REMARK  1083  A    between atoms: N_1921  and  CA_1922
REMARK  1084  A    between atoms: CA_1922  and  C_1923
REMARK  1085  A    between atoms: CA_1922  and  CB_1925
REMARK  1086  A    between atoms: CB_1925  and  CG_1926
REMARK  1087  A    between atoms: CG_1926  and  CD_1927
REMARK  1088  A    between atoms: CD_1927  and  NE_1928
REMARK  1089  A    between atoms: N_1932  and  CA_1933
REMARK  1090  A    between atoms: CA_1933  and  C_1934
REMARK  1091  A    between atoms: CA_1933  and  CB_1936
REMARK  1092  A    between atoms: CB_1936  and  CG_1937
REMARK  1093  A    between atoms: CG_1937  and  CD2_1938
REMARK  1094  A    between atoms: CG_1937  and  CD1_1939
REMARK  1095  A    between atoms: N_1940  and  CA_1941
REMARK  1096  A    between atoms: CA_1941  and  C_1942
REMARK  1097  A    between atoms: CA_1941  and  CB_1944
REMARK  1098  A    between atoms: CB_1944  and  CG_1945
REMARK  1099  A    between atoms: CG_1945  and  CD2_1946
REMARK  1100  A    between atoms: CG_1945  and  CD1_1947
REMARK  1101  A    between atoms: N_1948  and  CA_1949
REMARK  1102  A    between atoms: CA_1949  and  C_1950
REMARK  1103  A    between atoms: CA_1949  and  CB_1952
REMARK  1104  A    between atoms: CB_1952  and  CG_1953
REMARK  1105  A    between atoms: CG_1953  and  CD_1954
REMARK  1106  A    between atoms: CD_1954  and  CE_1955
REMARK  1107  A    between atoms: CE_1955  and  NZ_1956
REMARK  1108  A    between atoms: N_1957  and  CA_1958
REMARK  1109  A    between atoms: CA_1958  and  C_1959
REMARK  1110  A    between atoms: CA_1958  and  CB_1961
REMARK  1111  A    between atoms: CB_1961  and  CG_1962
REMARK  1112  A    between atoms: N_1967  and  CA_1968
REMARK  1113  A    between atoms: CA_1968  and  C_1969
REMARK  1114  A    between atoms: CA_1968  and  CB_1971
REMARK  1115  A    between atoms: CB_1971  and  CG_1972
REMARK  1116  A    between atoms: CA_1976  and  C_1977
REMARK  1117  A    between atoms: N_1982  and  C_1983
REMARK  1118  A    between atoms: C_1983  and  C_1984
REMARK  1119  A    between atoms: C_1983  and  C_1986
REMARK  1120  A    between atoms: C_1986  and  O_1987
REMARK  1121  A    between atoms: N_1988  and  C_1989
REMARK  1122  A    between atoms: C_1989  and  C_1990
REMARK  1123  A    between atoms: C_1989  and  C_1992
REMARK  1124  A    between atoms: C_1992  and  C_1993
REMARK  1125  A    between atoms: C_1993  and  C_1994
REMARK  1126  A    between atoms: N_1997  and  C_1998
REMARK  1127  A    between atoms: C_1998  and  C_1999
REMARK  1128  A    between atoms: C_1998  and  C_2001
REMARK  1129  A    between atoms: C_2001  and  C_2002
REMARK  1130  A    between atoms: C_2002  and  C_2003
REMARK  1131  A    between atoms: C_2003  and  N_2004
REMARK  1132  A    between atoms: C_2009  and  C_2010
REMARK  1133  A    between atoms: N_2015  and  C_2017
REMARK  1134  A    between atoms: C_2016  and  C_2018
REMARK  1135  A    between atoms: C_2016  and  C_2021
REMARK  1136  A    between atoms: C_2021  and  C_2022
REMARK  1137  A    between atoms: C_2022  and  C_2023
REMARK  1138  A    between atoms: C_2023  and  S_2024
REMARK  1139  A    between atoms: C_2023  and  S_2025
REMARK  1140  A    between atoms: S_2024  and  C_2026
REMARK  1141  A    between atoms: S_2025  and  C_2027
REMARK  1142  A    between atoms: N_2028  and  CA_2029
REMARK  1143  A    between atoms: CA_2029  and  C_2030
REMARK  1144  A    between atoms: CA_2029  and  CB_2032
REMARK  1145  A    between atoms: CB_2032  and  CG_2033
REMARK  1146  A    between atoms: CG_2033  and  CD1_2034
REMARK  1147  A    between atoms: CG_2033  and  CD2_2035
REMARK  1148  A    between atoms: N_2036  and  CA_2037
REMARK  1149  A    between atoms: CA_2037  and  C_2038
REMARK  1150  A    between atoms: CA_2037  and  CB_2040
REMARK  1151  A    between atoms: N_2041  and  CA_2042
REMARK  1152  A    between atoms: CA_2042  and  C_2043
REMARK  1153  A    between atoms: CA_2042  and  CB_2045
REMARK  1154  A    between atoms: CB_2045  and  CG_2046
REMARK  1155  A    between atoms: CG_2046  and  CD_2047
REMARK  1156  A    between atoms: N_2050  and  CA_2051
REMARK  1157  A    between atoms: CA_2051  and  C_2052
REMARK  1158  A    between atoms: CA_2051  and  CB_2054
REMARK  1159  A    between atoms: CB_2054  and  CG2_2055
REMARK  1160  A    between atoms: CB_2054  and  CG1_2056
REMARK  1161  A    between atoms: N_2057  and  CA_2058
REMARK  1162  A    between atoms: CA_2058  and  C_2059
REMARK  1163  A    between atoms: CA_2058  and  CB_2061
REMARK  1164  A    between atoms: CB_2061  and  CG_2062
REMARK  1165  A    between atoms: CG_2062  and  CD1_2063
REMARK  1166  A    between atoms: CG_2062  and  CD2_2064
REMARK  1167  A    between atoms: N_2065  and  CA_2066
REMARK  1168  A    between atoms: CA_2066  and  C_2067
REMARK  1169  A    between atoms: CA_2066  and  CB_2069
REMARK  1170  A    between atoms: CB_2069  and  CG_2070
REMARK  1171  A    between atoms: CG_2070  and  CD_2071
REMARK  1172  A    between atoms: N_2074  and  CA_2075
REMARK  1173  A    between atoms: CA_2075  and  C_2076
REMARK  1174  A    between atoms: CA_2075  and  CB_2078
REMARK  1175  A    between atoms: CB_2078  and  CG_2079
REMARK  1176  A    between atoms: CA_2085  and  C_2086
REMARK  1177  A    between atoms: N_2091  and  CA_2092
REMARK  1178  A    between atoms: CA_2092  and  C_2093
REMARK  1179  A    between atoms: CA_2092  and  CB_2095
REMARK  1180  A    between atoms: CB_2095  and  CG_2096
REMARK  1181  A    between atoms: N_2105  and  CA_2106
REMARK  1182  A    between atoms: CA_2106  and  C_2107
REMARK  1183  A    between atoms: CA_2106  and  CB_2109
REMARK  1184  A    between atoms: CB_2109  and  CG1_2110
REMARK  1185  A    between atoms: CB_2109  and  CG2_2111
REMARK  1186  A    between atoms: CG1_2110  and  CD1_2112
REMARK  1187  A    between atoms: N_2113  and  CA_2114
REMARK  1188  A    between atoms: CA_2114  and  C_2115
REMARK  1189  A    between atoms: CA_2114  and  CB_2117
REMARK  1190  A    between atoms: CB_2117  and  OG1_2118
REMARK  1191  A    between atoms: CB_2117  and  CG2_2119
REMARK  1192  A    between atoms: N_2120  and  CA_2121
REMARK  1193  A    between atoms: CA_2121  and  C_2122
REMARK  1194  A    between atoms: CA_2121  and  CB_2124
REMARK  1195  A    between atoms: N_2125  and  CA_2126
REMARK  1196  A    between atoms: CA_2126  and  C_2127
REMARK  1197  A    between atoms: CA_2126  and  CB_2129
REMARK  1198  A    between atoms: CB_2129  and  CG_2130
REMARK  1199  A    between atoms: N_2133  and  CA_2134
REMARK  1200  A    between atoms: CA_2134  and  C_2135
REMARK  1201  A    between atoms: CA_2134  and  CB_2137
REMARK  1202  A    between atoms: CB_2137  and  OG_2138
REMARK  1203  A    between atoms: N_2139  and  CA_2140
REMARK  1204  A    between atoms: CA_2140  and  C_2141
REMARK  1205  A    between atoms: CA_2140  and  CB_2143
REMARK  1206  A    between atoms: CB_2143  and  OG_2144
REMARK  1207  A    between atoms: N_2145  and  C_2146
REMARK  1208  A    between atoms: C_2146  and  C_2147
REMARK  1209  A    between atoms: C_2146  and  C_2149
REMARK  1210  A    between atoms: C_2149  and  C_2150
REMARK  1211  A    between atoms: N_2151  and  CA_2152
REMARK  1212  A    between atoms: CA_2152  and  C_2153
REMARK  1213  A    between atoms: CA_2152  and  CB_2155
REMARK  1214  A    between atoms: CB_2155  and  OG_2156
REMARK  1215  A    between atoms: N_2157  and  CA_2158
REMARK  1216  A    between atoms: CA_2158  and  C_2159
REMARK  1217  A    between atoms: CA_2158  and  CB_2161
REMARK  1218  A    between atoms: CB_2161  and  CG_2162
REMARK  1219  A    between atoms: CG_2162  and  CD_2163
REMARK  1220  A    between atoms: CA_2167  and  C_2168
REMARK  1221  A    between atoms: CA_2174  and  C_2175
REMARK  1222  A    between atoms: N_2180  and  CA_2181
REMARK  1223  A    between atoms: CA_2181  and  C_2182
REMARK  1224  A    between atoms: CA_2181  and  CB_2184
REMARK  1225  A    between atoms: CB_2184  and  OG_2185
REMARK  1226  A    between atoms: N_2186  and  CA_2187
REMARK  1227  A    between atoms: CA_2187  and  C_2188
REMARK  1228  A    between atoms: CA_2187  and  CB_2190
REMARK  1229  A    between atoms: CB_2190  and  CG_2191
REMARK  1230  A    between atoms: N_2200  and  CA_2201
REMARK  1231  A    between atoms: CA_2201  and  C_2202
REMARK  1232  A    between atoms: CA_2201  and  CB_2204
REMARK  1233  A    between atoms: CB_2204  and  CG2_2205
REMARK  1234  A    between atoms: CB_2204  and  CG1_2206
REMARK  1235  A    between atoms: N_2207  and  CA_2208
REMARK  1236  A    between atoms: CA_2208  and  C_2209
REMARK  1237  A    between atoms: CA_2208  and  CB_2211
REMARK  1238  A    between atoms: CB_2211  and  OG1_2212
REMARK  1239  A    between atoms: CB_2211  and  CG2_2213
REMARK  1240  A    between atoms: N_2214  and  CA_2215
REMARK  1241  A    between atoms: CA_2215  and  C_2216
REMARK  1242  A    between atoms: CA_2215  and  CB_2218
REMARK  1243  A    between atoms: CB_2218  and  CG_2219
REMARK  1244  A    between atoms: CG_2219  and  CD_2220
REMARK  1245  A    between atoms: N_2223  and  CA_2224
REMARK  1246  A    between atoms: CA_2224  and  C_2225
REMARK  1247  A    between atoms: CA_2224  and  CB_2227
REMARK  1248  A    between atoms: CB_2227  and  CG_2228
REMARK  1249  A    between atoms: CG_2228  and  SD_2229
REMARK  1250  A    between atoms: SD_2229  and  CE_2230
REMARK  1251  A    between atoms: N_2231  and  CA_2232
REMARK  1252  A    between atoms: CA_2232  and  C_2233
REMARK  1253  A    between atoms: CA_2232  and  CB_2235
REMARK  1254  A    between atoms: CB_2235  and  CG_2236
REMARK  1255  A    between atoms: CG_2236  and  CD1_2237
REMARK  1256  A    between atoms: CG_2236  and  CD2_2238
REMARK  1257  A    between atoms: N_2239  and  CA_2240
REMARK  1258  A    between atoms: CA_2240  and  C_2241
REMARK  1259  A    between atoms: CA_2240  and  CB_2243
REMARK  1260  A    between atoms: CB_2243  and  CG_2244
REMARK  1261  A    between atoms: CG_2244  and  CD1_2245
REMARK  1262  A    between atoms: CG_2244  and  CD2_2246
REMARK  1263  A    between atoms: N_2247  and  CA_2248
REMARK  1264  A    between atoms: CA_2248  and  C_2249
REMARK  1265  A    between atoms: CA_2248  and  CB_2251
REMARK  1266  A    between atoms: CB_2251  and  CG_2252
REMARK  1267  A    between atoms: CG_2252  and  CD_2253
REMARK  1268  A    between atoms: N_2256  and  CA_2257
REMARK  1269  A    between atoms: CA_2257  and  C_2258
REMARK  1270  A    between atoms: CA_2257  and  CB_2260
REMARK  1271  A    between atoms: CB_2260  and  CG_2261
REMARK  1272  A    between atoms: CG_2261  and  CD_2262
REMARK  1273  A    between atoms: CD_2262  and  CE_2263
REMARK  1274  A    between atoms: CE_2263  and  NZ_2264
REMARK  1275  A    between atoms: N_2265  and  C_2266
REMARK  1276  A    between atoms: C_2266  and  C_2267
REMARK  1277  A    between atoms: C_2266  and  C_2269
REMARK  1278  A    between atoms: C_2269  and  C_2270
REMARK  1279  A    between atoms: N_2271  and  CA_2272
REMARK  1280  A    between atoms: CA_2272  and  C_2273
REMARK  1281  A    between atoms: CA_2272  and  CB_2275
REMARK  1282  A    between atoms: CB_2275  and  CG_2276
REMARK  1283  A    between atoms: CG_2276  and  CD2_2277
REMARK  1284  A    between atoms: CG_2276  and  CD1_2278
REMARK  1285  A    between atoms: N_2279  and  CA_2280
REMARK  1286  A    between atoms: CA_2280  and  C_2281
REMARK  1287  A    between atoms: CA_2280  and  CB_2283
REMARK  1288  A    between atoms: CB_2283  and  CG_2284
REMARK  1289  A    between atoms: N_2293  and  CA_2294
REMARK  1290  A    between atoms: CA_2294  and  C_2295
REMARK                            x       y       z     vdW  Elec       q    Type
REMARK                         _______ _______ _______ _____ _____    ______ ____
ROOT
ATOM      1  CA  LYS A  37     -26.170  27.404   4.091  0.00  0.00    +0.159 C 
ENDROOT
BRANCH   1   4
ATOM      2  C   LEU A  36     -23.858  28.156   4.078  0.00  0.00    +0.234 C 
ATOM      3  O   LEU A  36     -23.650  27.727   5.219  0.00  0.00    -0.274 OA
ATOM      4  N   LYS A  37     -25.030  28.068   3.471  0.00  0.00    -0.302 N 
ATOM      5  H   LYS A  37     -25.135  28.462   2.575  0.00  0.00    +0.150 HD
BRANCH   2   6
ATOM      6  CA  LEU A  36     -22.735  28.820   3.295  0.00  0.00    +0.159 C 
BRANCH   6   9
ATOM      7  C   ALA A  35     -22.634  31.259   3.470  0.00  0.00    +0.234 C 
ATOM      8  O   ALA A  35     -23.062  31.410   2.324  0.00  0.00    -0.274 OA
ATOM      9  N   LEU A  36     -22.402  30.058   3.996  0.00  0.00    -0.302 N 
ATOM     10  H   LEU A  36     -21.991  30.002   4.889  0.00  0.00    +0.150 HD
BRANCH   7  11
ATOM     11  CA  ALA A  35     -22.315  32.469   4.345  0.00  0.00    +0.156 C 
ATOM     12  CB  ALA A  35     -23.585  32.992   5.036  0.00  0.00    +0.038 C 
BRANCH  11  15
ATOM     13  C   LEU A  34     -20.486  33.998   3.766  0.00  0.00    +0.234 C 
ATOM     14  O   LEU A  34     -19.853  33.754   4.793  0.00  0.00    -0.274 OA
ATOM     15  N   ALA A  35     -21.701  33.499   3.520  0.00  0.00    -0.303 N 
ATOM     16  H   ALA A  35     -22.203  33.843   2.746  0.00  0.00    +0.149 HD
BRANCH  13  17
ATOM     17  CA  LEU A  34     -19.919  34.897   2.685  0.00  0.00    +0.159 C 
BRANCH  17  20
ATOM     18  C   ILE A  33     -18.085  36.554   2.860  0.00  0.00    +0.234 C 
ATOM     19  O   ILE A  33     -18.766  37.486   2.420  0.00  0.00    -0.274 OA
ATOM     20  N   LEU A  34     -18.575  35.327   3.058  0.00  0.00    -0.302 N 
ATOM     21  H   LEU A  34     -17.987  34.664   3.487  0.00  0.00    +0.150 HD
BRANCH  18  22
ATOM     22  CA  ILE A  33     -16.625  36.773   3.248  0.00  0.00    +0.162 C 
BRANCH  22  25
ATOM     23  C   PHE A  32     -15.435  36.836   1.103  0.00  0.00    +0.234 C 
ATOM     24  O   PHE A  32     -15.580  35.626   0.920  0.00  0.00    -0.274 OA
ATOM     25  N   ILE A  33     -15.930  37.476   2.168  0.00  0.00    -0.302 N 
ATOM     26  H   ILE A  33     -15.823  38.453   2.228  0.00  0.00    +0.150 HD
BRANCH  23  27
ATOM     27  CA  PHE A  32     -14.660  37.680   0.094  0.00  0.00    +0.163 C 
BRANCH  27  30
ATOM     28  C   LYS A  31     -12.365  37.049   0.550  0.00  0.00    +0.234 C 
ATOM     29  O   LYS A  31     -12.435  37.551   1.673  0.00  0.00    -0.274 OA
ATOM     30  N   PHE A  32     -13.416  37.004  -0.256  0.00  0.00    -0.302 N 
ATOM     31  H   PHE A  32     -13.356  36.507  -1.104  0.00  0.00    +0.150 HD
BRANCH  28  32
ATOM     32  CA  LYS A  31     -11.055  36.446   0.057  0.00  0.00    +0.159 C 
BRANCH  32  35
ATOM     33  C   SER A  30     -11.073  37.251  -2.293  0.00  0.00    +0.236 C 
ATOM     34  O   SER A  30     -10.939  38.446  -1.988  0.00  0.00    -0.274 OA
ATOM     35  N   LYS A  31     -11.046  36.261  -1.394  0.00  0.00    -0.302 N 
ATOM     36  H   LYS A  31     -11.018  35.338  -1.735  0.00  0.00    +0.150 HD
BRANCH  33  37
ATOM     37  CA  SER A  30     -11.280  36.881  -3.757  0.00  0.00    +0.184 C 
BRANCH  37  40
ATOM     38  C   ALA A  29      -9.762  35.075  -4.385  0.00  0.00    +0.234 C 
ATOM     39  O   ALA A  29      -8.791  35.838  -4.405  0.00  0.00    -0.274 OA
ATOM     40  N   SER A  30     -10.982  35.488  -4.050  0.00  0.00    -0.301 N 
ATOM     41  H   SER A  30     -11.709  34.826  -3.999  0.00  0.00    +0.150 HD
BRANCH  38  42
ATOM     42  CA  ALA A  29      -9.590  33.601  -4.728  0.00  0.00    +0.156 C 
ATOM     43  CB  ALA A  29     -10.056  33.317  -6.157  0.00  0.00    +0.038 C 
BRANCH  42  46
ATOM     44  C   LYS A  28      -9.886  32.673  -2.516  0.00  0.00    +0.234 C 
ATOM     45  O   LYS A  28      -8.949  33.363  -2.093  0.00  0.00    -0.274 OA
ATOM     46  N   ALA A  29     -10.308  32.751  -3.781  0.00  0.00    -0.303 N 
ATOM     47  H   ALA A  29     -11.097  32.240  -4.073  0.00  0.00    +0.149 HD
BRANCH  44  48
ATOM     48  CA  LYS A  28     -10.552  31.648  -1.609  0.00  0.00    +0.159 C 
BRANCH  48  51
ATOM     49  C   GLU A  27     -12.739  32.674  -1.344  0.00  0.00    +0.234 C 
ATOM     50  O   GLU A  27     -12.251  33.774  -1.083  0.00  0.00    -0.274 OA
ATOM     51  N   LYS A  28     -12.007  31.634  -1.744  0.00  0.00    -0.302 N 
ATOM     52  H   LYS A  28     -12.452  30.847  -2.135  0.00  0.00    +0.150 HD
BRANCH  49  53
ATOM     53  CA  GLU A  27     -14.241  32.440  -1.224  0.00  0.00    +0.159 C 
BRANCH  53  56
ATOM     54  C   ARG A  26     -14.282  32.255   1.180  0.00  0.00    +0.234 C 
ATOM     55  O   ARG A  26     -13.642  31.197   1.150  0.00  0.00    -0.274 OA
ATOM     56  N   GLU A  27     -14.690  32.892   0.086  0.00  0.00    -0.302 N 
ATOM     57  H   GLU A  27     -15.293  33.666   0.161  0.00  0.00    +0.150 HD
BRANCH  54  58
ATOM     58  CA  ARG A  26     -14.631  32.885   2.514  0.00  0.00    +0.159 C 
BRANCH  58  61
ATOM     59  C   ALA A  25     -16.472  32.313   3.996  0.00  0.00    +0.234 C 
ATOM     60  O   ALA A  25     -16.823  33.490   4.106  0.00  0.00    -0.274 OA
ATOM     61  N   ARG A  26     -15.429  31.929   3.268  0.00  0.00    -0.302 N 
ATOM     62  H   ARG A  26     -15.190  30.974   3.238  0.00  0.00    +0.150 HD
BRANCH  59  63
ATOM     63  CA  ALA A  25     -17.224  31.188   4.686  0.00  0.00    +0.156 C 
ATOM     64  CB  ALA A  25     -18.017  30.387   3.645  0.00  0.00    +0.038 C 
BRANCH  63  67
ATOM     65  C   LEU A  24     -18.256  31.065   6.878  0.00  0.00    +0.234 C 
ATOM     66  O   LEU A  24     -17.716  29.980   7.111  0.00  0.00    -0.274 OA
ATOM     67  N   ALA A  25     -18.082  31.724   5.732  0.00  0.00    -0.303 N 
ATOM     68  H   ALA A  25     -18.540  32.584   5.592  0.00  0.00    +0.149 HD
BRANCH  65  69
ATOM     69  CA  LEU A  24     -19.201  31.697   7.888  0.00  0.00    +0.159 C 
BRANCH  69  72
ATOM     70  C   TYR A  23     -20.899  29.986   7.681  0.00  0.00    +0.234 C 
ATOM     71  O   TYR A  23     -21.210  30.338   6.539  0.00  0.00    -0.274 OA
ATOM     72  N   LEU A  24     -20.051  30.660   8.451  0.00  0.00    -0.302 N 
ATOM     73  H   LEU A  24     -19.998  30.455   9.412  0.00  0.00    +0.150 HD
BRANCH  70  74
ATOM     74  CA  TYR A  23     -21.458  28.710   8.289  0.00  0.00    +0.163 C 
BRANCH  74  77
ATOM     75  C   VAL A  22     -23.873  28.544   8.752  0.00  0.00    +0.234 C 
ATOM     76  O   VAL A  22     -23.744  28.869   9.943  0.00  0.00    -0.274 OA
ATOM     77  N   TYR A  23     -22.849  28.469   7.898  0.00  0.00    -0.302 N 
ATOM     78  H   TYR A  23     -23.038  28.240   6.959  0.00  0.00    +0.150 HD
BRANCH  75  79
ATOM     79  CA  VAL A  22     -25.240  28.142   8.215  0.00  0.00    +0.161 C 
BRANCH  79  82
ATOM     80  C   ASN A  21     -25.858  25.822   8.752  0.00  0.00    +0.234 C 
ATOM     81  O   ASN A  21     -25.690  25.422   7.601  0.00  0.00    -0.274 OA
ATOM     82  N   VAL A  22     -25.746  27.104   9.102  0.00  0.00    -0.302 N 
ATOM     83  H   VAL A  22     -26.021  27.363  10.011  0.00  0.00    +0.150 HD
BRANCH  80  84
ATOM     84  CA  ASN A  21     -26.176  24.866   9.893  0.00  0.00    +0.168 C 
BRANCH  84  87
ATOM     85  C   GLY A  20     -27.869  23.379   9.079  0.00  0.00    +0.231 C 
ATOM     86  O   GLY A  20     -28.720  24.263   9.192  0.00  0.00    -0.274 OA
ATOM     87  N   ASN A  21     -26.587  23.562   9.390  0.00  0.00    -0.302 N 
ATOM     88  H   ASN A  21     -25.933  22.834   9.283  0.00  0.00    +0.150 HD
BRANCH  85  89
ATOM     89  CA  GLY A  20     -28.229  21.993   8.604  0.00  0.00    +0.200 C 
BRANCH  89  92
ATOM     90  C   PHE A  19     -30.222  20.979   7.663  0.00  0.00    +0.234 C 
ATOM     91  O   PHE A  19     -29.551  20.158   7.027  0.00  0.00    -0.274 OA
ATOM     92  N   GLY A  20     -29.668  21.888   8.449  0.00  0.00    -0.305 N 
ATOM     93  H   GLY A  20     -30.249  22.511   8.943  0.00  0.00    +0.149 HD
BRANCH  90  94
ATOM     94  CA  PHE A  19     -31.743  20.931   7.590  0.00  0.00    +0.163 C 
BRANCH  94  97
ATOM     95  C   LYS A  18     -33.072  21.881   9.421  0.00  0.00    +0.234 C 
ATOM     96  O   LYS A  18     -33.066  20.814  10.045  0.00  0.00    -0.274 OA
ATOM     97  N   PHE A  19     -32.392  22.042   8.281  0.00  0.00    -0.302 N 
ATOM     98  H   PHE A  19     -32.326  22.944   7.892  0.00  0.00    +0.150 HD
BRANCH  95  99
ATOM     99  CA  LYS A  18     -33.881  23.069   9.936  0.00  0.00    +0.159 C 
BRANCH  99 102
ATOM    100  C   GLY A  17     -31.995  24.513  10.468  0.00  0.00    +0.231 C 
ATOM    101  O   GLY A  17     -31.524  23.691  11.253  0.00  0.00    -0.274 OA
ATOM    102  N   LYS A  18     -33.146  24.323   9.816  0.00  0.00    -0.303 N 
ATOM    103  H   LYS A  18     -33.504  25.041   9.245  0.00  0.00    +0.149 HD
BRANCH 100 104
ATOM    104  CA  GLY A  17     -31.316  25.844  10.178  0.00  0.00    +0.200 C 
BRANCH 104 107
ATOM    105  C   UNK A  16     -30.146  26.713  12.127  0.00  0.00    +0.234 C 
ATOM    106  O   UNK A  16     -31.115  27.372  12.512  0.00  0.00    -0.274 OA
ATOM    107  N   GLY A  17     -30.131  26.022  10.986  0.00  0.00    -0.305 N 
ATOM    108  H   GLY A  17     -29.285  25.620  10.684  0.00  0.00    +0.149 HD
BRANCH 105 109
ATOM    109  C   UNK A  16     -28.867  26.685  12.951  0.00  0.00    +0.159 C 
BRANCH 109 112
ATOM    110  C   GLY A  15     -27.287  28.493  12.620  0.00  0.00    +0.231 C 
ATOM    111  O   GLY A  15     -26.606  27.834  11.830  0.00  0.00    -0.274 OA
ATOM    112  N   UNK A  16     -28.417  28.053  13.152  0.00  0.00    -0.303 N 
ATOM    113  H   UNK A  16     -28.964  28.665  13.695  0.00  0.00    +0.149 HD
BRANCH 110 114
ATOM    114  CA  GLY A  15     -26.891  29.890  13.020  0.00  0.00    +0.200 C 
BRANCH 114 117
ATOM    115  C   LEU A  14     -24.961  31.294  12.750  0.00  0.00    +0.234 C 
ATOM    116  O   LEU A  14     -25.454  32.143  13.499  0.00  0.00    -0.274 OA
ATOM    117  N   GLY A  15     -25.596  30.181  12.434  0.00  0.00    -0.305 N 
ATOM    118  H   GLY A  15     -25.190  29.547  11.799  0.00  0.00    +0.149 HD
BRANCH 115 119
ATOM    119  CA  LEU A  14     -23.572  31.509  12.159  0.00  0.00    +0.159 C 
BRANCH 119 122
ATOM    120  C   PRO A  13     -22.061  29.715  12.851  0.00  0.00    +0.234 C 
ATOM    121  O   PRO A  13     -21.772  30.286  13.905  0.00  0.00    -0.274 OA
ATOM    122  N   LEU A  14     -22.855  30.255  11.926  0.00  0.00    -0.302 N 
ATOM    123  H   LEU A  14     -22.962  29.797  11.061  0.00  0.00    +0.150 HD
BRANCH 120 127
ATOM    124  C   ARG A  12     -19.199  29.080  12.187  0.00  0.00    +0.237 C 
ATOM    125  O   ARG A  12     -19.554  29.704  11.183  0.00  0.00    -0.274 OA
ATOM    126  N   PRO A  13     -20.049  28.298  12.853  0.00  0.00    -0.288 N 
ATOM    127  CA  PRO A  13     -21.485  28.344  12.520  0.00  0.00    +0.162 C 
ATOM    128  CB  PRO A  13     -22.105  27.246  13.393  0.00  0.00    +0.033 C 
ATOM    129  CG  PRO A  13     -20.984  26.508  14.031  0.00  0.00    +0.021 C 
ATOM    130  CD  PRO A  13     -19.740  27.354  13.947  0.00  0.00    +0.109 C 
BRANCH 124 131
ATOM    131  CA  ARG A  12     -17.756  29.162  12.702  0.00  0.00    +0.159 C 
BRANCH 131 134
ATOM    132  C   GLY A  11     -16.543  28.855  10.602  0.00  0.00    +0.231 C 
ATOM    133  O   GLY A  11     -17.197  27.850  10.300  0.00  0.00    -0.274 OA
ATOM    134  N   ARG A  12     -16.827  29.605  11.670  0.00  0.00    -0.303 N 
ATOM    135  H   ARG A  12     -16.395  30.485  11.763  0.00  0.00    +0.149 HD
BRANCH 132 136
ATOM    136  CA  GLY A  11     -15.383  29.307   9.725  0.00  0.00    +0.200 C 
BRANCH 136 139
ATOM    137  C   ILE A  10     -14.570  28.192   7.719  0.00  0.00    +0.234 C 
ATOM    138  O   ILE A  10     -13.456  27.983   8.210  0.00  0.00    -0.274 OA
ATOM    139  N   GLY A  11     -15.520  28.895   8.338  0.00  0.00    -0.305 N 
ATOM    140  H   GLY A  11     -16.335  29.141   7.843  0.00  0.00    +0.149 HD
BRANCH 137 141
ATOM    141  CA  ILE A  10     -14.929  27.644   6.343  0.00  0.00    +0.162 C 
BRANCH 141 144
ATOM    142  C   GLU A   9     -13.734  28.587   4.431  0.00  0.00    +0.234 C 
ATOM    143  O   GLU A   9     -14.636  29.387   4.191  0.00  0.00    -0.274 OA
ATOM    144  N   ILE A  10     -13.769  27.748   5.462  0.00  0.00    -0.302 N 
ATOM    145  H   ILE A  10     -12.986  27.177   5.637  0.00  0.00    +0.150 HD
BRANCH 142 146
ATOM    146  CA  GLU A   9     -12.496  28.537   3.550  0.00  0.00    +0.159 C 
BRANCH 146 149
ATOM    147  C   PHE A   8     -13.419  27.754   1.421  0.00  0.00    +0.234 C 
ATOM    148  O   PHE A   8     -13.219  26.551   1.636  0.00  0.00    -0.274 OA
ATOM    149  N   GLU A   9     -12.918  28.740   2.170  0.00  0.00    -0.302 N 
ATOM    150  H   GLU A   9     -12.831  29.638   1.775  0.00  0.00    +0.150 HD
BRANCH 147 151
ATOM    151  CA  PHE A   8     -14.249  28.196   0.231  0.00  0.00    +0.163 C 
BRANCH 151 154
ATOM    152  C   ASP A   7     -13.602  27.943  -2.129  0.00  0.00    +0.234 C 
ATOM    153  O   ASP A   7     -13.409  29.153  -2.285  0.00  0.00    -0.274 OA
ATOM    154  N   PHE A   8     -13.920  27.410  -0.951  0.00  0.00    -0.302 N 
ATOM    155  H   PHE A   8     -13.934  26.429  -0.874  0.00  0.00    +0.150 HD
BRANCH 152 156
ATOM    156  CA  ASP A   7     -13.455  27.005  -3.322  0.00  0.00    +0.164 C 
BRANCH 156 159
ATOM    157  C   GLU A   6     -12.621  24.871  -2.509  0.00  0.00    +0.234 C 
ATOM    158  O   GLU A   6     -11.481  25.325  -2.396  0.00  0.00    -0.274 OA
ATOM    159  N   ASP A   7     -13.632  25.604  -2.965  0.00  0.00    -0.302 N 
ATOM    160  H   ASP A   7     -14.520  25.191  -3.064  0.00  0.00    +0.150 HD
BRANCH 157 161
ATOM    161  CA  GLU A   6     -12.876  23.418  -2.136  0.00  0.00    +0.159 C 
BRANCH 161 164
ATOM    162  C   LEU A   5     -15.167  23.592  -1.283  0.00  0.00    +0.234 C 
ATOM    163  O   LEU A   5     -14.845  24.442  -0.441  0.00  0.00    -0.274 OA
ATOM    164  N   GLU A   6     -14.292  23.073  -2.143  0.00  0.00    -0.302 N 
ATOM    165  H   GLU A   6     -14.616  22.428  -2.813  0.00  0.00    +0.150 HD
BRANCH 162 166
ATOM    166  CA  LEU A   5     -16.614  23.115  -1.383  0.00  0.00    +0.159 C 
BRANCH 166 169
ATOM    167  C   ALA A   4     -16.890  23.733  -3.707  0.00  0.00    +0.234 C 
ATOM    168  O   ALA A   4     -16.405  24.848  -3.501  0.00  0.00    -0.274 OA
ATOM    169  N   LEU A   5     -16.987  22.798  -2.761  0.00  0.00    -0.302 N 
ATOM    170  H   LEU A   5     -17.309  21.896  -2.990  0.00  0.00    +0.150 HD
BRANCH 167 171
ATOM    171  CA  ALA A   4     -17.414  23.349  -5.082  0.00  0.00    +0.156 C 
ATOM    172  CB  ALA A   4     -16.456  22.371  -5.773  0.00  0.00    +0.038 C 
BRANCH 171 175
ATOM    173  C   TRP A   3     -18.491  24.694  -6.833  0.00  0.00    +0.234 C 
ATOM    174  O   TRP A   3     -19.166  23.750  -7.246  0.00  0.00    -0.274 OA
ATOM    175  N   ALA A   4     -17.594  24.575  -5.853  0.00  0.00    -0.303 N 
ATOM    176  H   ALA A   4     -17.027  25.351  -5.640  0.00  0.00    +0.149 HD
BRANCH 173 177
ATOM    177  CA  TRP A   3     -18.647  26.094  -7.410  0.00  0.00    +0.163 C 
BRANCH 177 180
ATOM    178  C   ALA A   2     -18.462  25.493  -9.768  0.00  0.00    +0.234 C 
ATOM    179  O   ALA A   2     -17.406  24.890  -9.578  0.00  0.00    -0.274 OA
ATOM    180  N   TRP A   3     -19.153  26.054  -8.778  0.00  0.00    -0.302 N 
ATOM    181  H   TRP A   3     -20.031  26.454  -8.975  0.00  0.00    +0.150 HD
BRANCH 178 182
ATOM    182  CA  ALA A   2     -19.054  25.639 -11.170  0.00  0.00    +0.156 C 
ATOM    183  CB  ALA A   2     -18.715  24.447 -12.056  0.00  0.00    +0.038 C 
BRANCH 182 186
ATOM    184  C   GLY A   1     -19.224  28.020 -11.783  0.00  0.00    +0.259 C 
ATOM    185  O   GLY A   1     -20.426  28.084 -11.523  0.00  0.00    -0.270 OA
ATOM    186  N   ALA A   2     -18.527  26.882 -11.739  0.00  0.00    -0.300 N 
ATOM    187  H   ALA A   2     -17.614  26.878 -12.107  0.00  0.00    +0.150 HD
BRANCH 184 188
ATOM    188  CA  GLY A   1     -18.451  29.272 -12.199  0.00  0.00    +0.225 C 
BRANCH 188 189
ATOM    189  N   GLY A   1     -18.106  30.078 -11.028  0.00  0.00    +0.225 N 
ATOM    190  H   GLY A   1     -17.592  30.907 -11.325  0.00  0.00    +0.200 HD
ATOM    191  H   GLY A   1     -17.526  29.527 -10.395  0.00  0.00    +0.200 HD
ATOM    192  H   GLY A   1     -18.960  30.362 -10.547  0.00  0.00    +0.200 HD
ENDBRANCH 188 189
ENDBRANCH 184 188
ENDBRANCH 182 186
ENDBRANCH 178 182
ENDBRANCH 177 180
BRANCH 177 193
ATOM    193  CB  TRP A   3     -19.592  26.901  -6.520  0.00  0.00    +0.069 C 
BRANCH 193 194
ATOM    194  CG  TRP A   3     -19.691  28.331  -6.914  0.00  0.00    -0.018 C 
ATOM    195  CD1 TRP A   3     -20.796  28.973  -7.396  0.00  0.00    +0.115 C 
ATOM    196  CD2 TRP A   3     -18.657  29.319  -6.827  0.00  0.00    +0.001 C 
ATOM    197  NE1 TRP A   3     -20.506  30.296  -7.635  0.00  0.00    -0.259 NA
ATOM    198  CE2 TRP A   3     -19.201  30.534  -7.294  0.00  0.00    +0.052 C 
ATOM    199  CE3 TRP A   3     -17.321  29.290  -6.414  0.00  0.00    +0.010 C 
ATOM    200  CZ2 TRP A   3     -18.456  31.711  -7.359  0.00  0.00    +0.083 C 
ATOM    201  CZ3 TRP A   3     -16.579  30.462  -6.479  0.00  0.00    -0.003 C 
ATOM    202  CH2 TRP A   3     -17.150  31.656  -6.948  0.00  0.00    -0.021 C 
ENDBRANCH 193 194
ENDBRANCH 177 193
ENDBRANCH 173 177
ENDBRANCH 171 175
ENDBRANCH 167 171
ENDBRANCH 166 169
BRANCH 166 203
ATOM    203  CB  LEU A   5     -16.831  21.891  -0.490  0.00  0.00    +0.034 C 
BRANCH 203 204
ATOM    204  CG  LEU A   5     -16.890  22.135   1.021  0.00  0.00    -0.015 C 
ATOM    205  CD1 LEU A   5     -17.810  23.297   1.372  0.00  0.00    +0.007 C 
ATOM    206  CD2 LEU A   5     -17.300  20.869   1.757  0.00  0.00    +0.007 C 
ENDBRANCH 203 204
ENDBRANCH 166 203
ENDBRANCH 162 166
ENDBRANCH 161 164
BRANCH 161 207
ATOM    207  CB  GLU A   6     -12.122  22.498  -3.102  0.00  0.00    +0.037 C 
BRANCH 207 208
ATOM    208  CG  GLU A   6     -12.609  22.644  -4.532  0.00  0.00    +0.054 C 
BRANCH 208 209
ATOM    209  CD  GLU A   6     -11.823  21.832  -5.543  0.00  0.00    +0.042 C 
ATOM    210  OE2 GLU A   6     -10.851  21.145  -5.158  0.00  0.00    -0.550 OA
ATOM    211  OE1 GLU A   6     -12.197  21.878  -6.736  0.00  0.00    -0.550 OA
ENDBRANCH 208 209
ENDBRANCH 207 208
ENDBRANCH 161 207
ENDBRANCH 157 161
ENDBRANCH 156 159
BRANCH 156 212
ATOM    212  CB  ASP A   7     -14.450  27.403  -4.421  0.00  0.00    +0.083 C 
BRANCH 212 213
ATOM    213  CG  ASP A   7     -14.248  26.605  -5.709  0.00  0.00    +0.044 C 
ATOM    214  OD2 ASP A   7     -13.092  26.339  -6.060  0.00  0.00    -0.550 OA
ATOM    215  OD1 ASP A   7     -15.246  26.254  -6.362  0.00  0.00    -0.550 OA
ENDBRANCH 212 213
ENDBRANCH 156 212
ENDBRANCH 152 156
ENDBRANCH 151 154
BRANCH 151 216
ATOM    216  CB  PHE A   8     -15.742  28.061   0.588  0.00  0.00    +0.067 C 
BRANCH 216 217
ATOM    217  CG  PHE A   8     -16.644  28.472  -0.515  0.00  0.00    -0.045 A 
ATOM    218  CD2 PHE A   8     -16.963  29.810  -0.698  0.00  0.00    +0.004 A 
ATOM    219  CD1 PHE A   8     -17.119  27.541  -1.415  0.00  0.00    +0.004 A 
ATOM    220  CE2 PHE A   8     -17.781  30.204  -1.743  0.00  0.00    +0.000 A 
ATOM    221  CE1 PHE A   8     -17.933  27.927  -2.461  0.00  0.00    +0.000 A 
ATOM    222  CZ  PHE A   8     -18.253  29.257  -2.633  0.00  0.00    +0.000 A 
ENDBRANCH 216 217
ENDBRANCH 151 216
ENDBRANCH 147 151
ENDBRANCH 146 149
BRANCH 146 223
ATOM    223  CB  GLU A   9     -11.523  29.631   3.991  0.00  0.00    +0.037 C 
BRANCH 223 224
ATOM    224  CG  GLU A   9     -10.218  29.653   3.249  0.00  0.00    +0.054 C 
BRANCH 224 225
ATOM    225  CD  GLU A   9      -9.269  30.699   3.802  0.00  0.00    +0.042 C 
ATOM    226  OE2 GLU A   9      -9.567  31.269   4.875  0.00  0.00    -0.550 OA
ATOM    227  OE1 GLU A   9      -8.243  30.966   3.153  0.00  0.00    -0.550 OA
ENDBRANCH 224 225
ENDBRANCH 223 224
ENDBRANCH 146 223
ENDBRANCH 142 146
ENDBRANCH 141 144
BRANCH 141 228
ATOM    228  CB  ILE A  10     -15.428  26.188   6.448  0.00  0.00    +0.015 C 
ATOM    229  CG2 ILE A  10     -16.704  26.091   7.281  0.00  0.00    +0.010 C 
BRANCH 228 230
ATOM    230  CG1 ILE A  10     -15.638  25.591   5.053  0.00  0.00    +0.002 C 
ATOM    231  CD1 ILE A  10     -16.499  26.420   4.163  0.00  0.00    +0.004 C 
ENDBRANCH 228 230
ENDBRANCH 141 228
ENDBRANCH 137 141
ENDBRANCH 136 139
ENDBRANCH 132 136
ENDBRANCH 131 134
BRANCH 131 232
ATOM    232  CB  ARG A  12     -17.693  30.112  13.886  0.00  0.00    +0.035 C 
BRANCH 232 233
ATOM    233  CG  ARG A  12     -18.245  31.513  13.582  0.00  0.00    +0.039 C 
BRANCH 233 234
ATOM    234  CD  ARG A  12     -18.075  32.412  14.815  0.00  0.00    +0.196 C 
BRANCH 234 235
ATOM    235  NE  ARG A  12     -18.532  33.781  14.601  0.00  0.00    -0.279 N 
ATOM    236  CZ  ARG A  12     -19.802  34.163  14.571  0.00  0.00    +0.341 C 
ATOM    237  NH2 ARG A  12     -20.795  33.289  14.701  0.00  0.00    -0.292 N 
ATOM    238  NH1 ARG A  12     -20.087  35.456  14.407  0.00  0.00    -0.292 N 
ATOM    239  H   ARG A  12     -17.845  34.474  14.469  0.00  0.00    +0.258 HD
ATOM    240  H   ARG A  12     -21.729  33.598  14.675  0.00  0.00    +0.255 HD
ATOM    241  H   ARG A  12     -20.596  32.333  14.823  0.00  0.00    +0.255 HD
ATOM    242  H   ARG A  12     -19.359  36.112  14.310  0.00  0.00    +0.255 HD
ATOM    243  H   ARG A  12     -21.025  35.754  14.383  0.00  0.00    +0.255 HD
ENDBRANCH 234 235
ENDBRANCH 233 234
ENDBRANCH 232 233
ENDBRANCH 131 232
ENDBRANCH 124 131
ENDBRANCH 120 127
ENDBRANCH 119 122
BRANCH 119 244
ATOM    244  CB  LEU A  14     -23.698  32.288  10.844  0.00  0.00    +0.034 C 
BRANCH 244 245
ATOM    245  CG  LEU A  14     -22.341  32.747  10.275  0.00  0.00    -0.015 C 
ATOM    246  CD1 LEU A  14     -22.506  33.204   8.834  0.00  0.00    +0.007 C 
ATOM    247  CD2 LEU A  14     -21.731  33.828  11.154  0.00  0.00    +0.007 C 
ENDBRANCH 244 245
ENDBRANCH 119 244
ENDBRANCH 115 119
ENDBRANCH 114 117
ENDBRANCH 110 114
ENDBRANCH 109 112
BRANCH 109 248
ATOM    248  C   UNK A  16     -29.099  25.987  14.291  0.00  0.00    +0.031 C 
BRANCH 248 249
ATOM    249  C   UNK A  16     -29.467  24.527  14.139  0.00  0.00    -0.001 C 
ATOM    250  C   UNK A  16     -28.847  23.701  15.256  0.00  0.00    +0.004 C 
ENDBRANCH 248 249
ENDBRANCH 109 248
ENDBRANCH 105 109
ENDBRANCH 104 107
ENDBRANCH 100 104
ENDBRANCH  99 102
BRANCH  99 251
ATOM    251  CB  LYS A  18     -35.199  23.164   9.162  0.00  0.00    +0.032 C 
BRANCH 251 252
ATOM    252  CG  LYS A  18     -36.092  21.918   9.275  0.00  0.00    +0.007 C 
BRANCH 252 253
ATOM    253  CD  LYS A  18     -37.563  22.268   9.529  0.00  0.00    +0.051 C 
BRANCH 253 254
ATOM    254  CE  LYS A  18     -38.462  21.071   9.211  0.00  0.00    +0.127 C 
BRANCH 254 255
ATOM    255  NZ  LYS A  18     -39.889  21.301   9.596  0.00  0.00    +0.219 N 
ATOM    256  H   LYS A  18     -39.950  21.450  10.603  0.00  0.00    +0.199 HD
ATOM    257  H   LYS A  18     -40.446  20.486   9.339  0.00  0.00    +0.199 HD
ATOM    258  H   LYS A  18     -40.244  22.123   9.108  0.00  0.00    +0.199 HD
ENDBRANCH 254 255
ENDBRANCH 253 254
ENDBRANCH 252 253
ENDBRANCH 251 252
ENDBRANCH  99 251
ENDBRANCH  95  99
ENDBRANCH  94  97
BRANCH  94 259
ATOM    259  CB  PHE A  19     -32.232  20.892   6.139  0.00  0.00    +0.067 C 
BRANCH 259 260
ATOM    260  CG  PHE A  19     -33.707  20.627   6.041  0.00  0.00    -0.045 A 
ATOM    261  CD2 PHE A  19     -34.194  19.331   6.176  0.00  0.00    +0.004 A 
ATOM    262  CD1 PHE A  19     -34.608  21.663   5.914  0.00  0.00    +0.004 A 
ATOM    263  CE2 PHE A  19     -35.548  19.062   6.137  0.00  0.00    +0.000 A 
ATOM    264  CE1 PHE A  19     -35.983  21.405   5.873  0.00  0.00    +0.000 A 
ATOM    265  CZ  PHE A  19     -36.456  20.103   5.984  0.00  0.00    +0.000 A 
ENDBRANCH 259 260
ENDBRANCH  94 259
ENDBRANCH  90  94
ENDBRANCH  89  92
ENDBRANCH  85  89
ENDBRANCH  84  87
BRANCH  84 266
ATOM    266  CB  ASN A  21     -24.955  24.742  10.803  0.00  0.00    +0.127 C 
BRANCH 266 267
ATOM    267  CG  ASN A  21     -25.269  24.030  12.095  0.00  0.00    +0.213 C 
ATOM    268  OD1 ASN A  21     -26.404  24.050  12.563  0.00  0.00    -0.276 OA
ATOM    269  ND2 ASN A  21     -24.268  23.377  12.669  0.00  0.00    -0.329 N 
ATOM    270  H   ASN A  21     -23.373  23.388  12.258  0.00  0.00    +0.145 HD
ATOM    271  H   ASN A  21     -24.419  22.881  13.506  0.00  0.00    +0.145 HD
ENDBRANCH 266 267
ENDBRANCH  84 266
ENDBRANCH  80  84
ENDBRANCH  79  82
BRANCH  79 272
ATOM    272  CB  VAL A  22     -26.198  29.342   8.141  0.00  0.00    +0.012 C 
ATOM    273  CG1 VAL A  22     -25.673  30.374   7.154  0.00  0.00    +0.009 C 
ATOM    274  CG2 VAL A  22     -27.587  28.856   7.692  0.00  0.00    +0.009 C 
ENDBRANCH  79 272
ENDBRANCH  75  79
ENDBRANCH  74  77
BRANCH  74 275
ATOM    275  CB  TYR A  23     -20.539  27.558   7.860  0.00  0.00    +0.067 C 
BRANCH 275 276
ATOM    276  CG  TYR A  23     -20.882  26.265   8.533  0.00  0.00    -0.045 A 
ATOM    277  CD1 TYR A  23     -21.830  25.409   7.983  0.00  0.00    +0.007 A 
ATOM    278  CD2 TYR A  23     -20.305  25.929   9.744  0.00  0.00    +0.007 A 
ATOM    279  CE1 TYR A  23     -22.162  24.227   8.605  0.00  0.00    +0.045 A 
ATOM    280  CE2 TYR A  23     -20.638  24.747  10.384  0.00  0.00    +0.045 A 
ATOM    281  CZ  TYR A  23     -21.570  23.899   9.798  0.00  0.00    +0.117 A 
BRANCH 281 282
ATOM    282  OH  TYR A  23     -21.920  22.721  10.414  0.00  0.00    -0.507 OA
ATOM    283  H   TYR A  23     -22.549  22.152  10.015  0.00  0.00    +0.292 HD
ENDBRANCH 281 282
ENDBRANCH 275 276
ENDBRANCH  74 275
ENDBRANCH  70  74
ENDBRANCH  69  72
BRANCH  69 284
ATOM    284  CB  LEU A  24     -18.409  32.392   9.004  0.00  0.00    +0.034 C 
BRANCH 284 285
ATOM    285  CG  LEU A  24     -17.585  33.614   8.589  0.00  0.00    -0.015 C 
ATOM    286  CD1 LEU A  24     -18.508  34.756   8.195  0.00  0.00    +0.007 C 
ATOM    287  CD2 LEU A  24     -16.687  34.050   9.713  0.00  0.00    +0.007 C 
ENDBRANCH 284 285
ENDBRANCH  69 284
ENDBRANCH  65  69
ENDBRANCH  63  67
ENDBRANCH  59  63
ENDBRANCH  58  61
BRANCH  58 288
ATOM    288  CB  ARG A  26     -13.362  33.264   3.284  0.00  0.00    +0.035 C 
BRANCH 288 289
ATOM    289  CG  ARG A  26     -12.542  34.323   2.618  0.00  0.00    +0.039 C 
BRANCH 289 290
ATOM    290  CD  ARG A  26     -11.194  34.524   3.314  0.00  0.00    +0.196 C 
BRANCH 290 291
ATOM    291  NE  ARG A  26     -11.346  34.846   4.730  0.00  0.00    -0.279 N 
ATOM    292  CZ  ARG A  26     -11.395  36.079   5.213  0.00  0.00    +0.341 C 
ATOM    293  NH1 ARG A  26     -11.446  37.130   4.412  0.00  0.00    -0.292 N 
ATOM    294  NH2 ARG A  26     -11.372  36.264   6.530  0.00  0.00    -0.292 N 
ATOM    295  H   ARG A  26     -11.417  34.099   5.367  0.00  0.00    +0.258 HD
ATOM    296  H   ARG A  26     -11.463  37.004   3.436  0.00  0.00    +0.255 HD
ATOM    297  H   ARG A  26     -11.467  38.038   4.792  0.00  0.00    +0.255 HD
ATOM    298  H   ARG A  26     -11.408  37.176   6.900  0.00  0.00    +0.255 HD
ATOM    299  H   ARG A  26     -11.319  35.489   7.135  0.00  0.00    +0.255 HD
ENDBRANCH 290 291
ENDBRANCH 289 290
ENDBRANCH 288 289
ENDBRANCH  58 288
ENDBRANCH  54  58
ENDBRANCH  53  56
BRANCH  53 300
ATOM    300  CB  GLU A  27     -14.997  33.164  -2.335  0.00  0.00    +0.037 C 
BRANCH 300 301
ATOM    301  CG  GLU A  27     -14.860  32.523  -3.717  0.00  0.00    +0.054 C 
BRANCH 301 302
ATOM    302  CD  GLU A  27     -13.560  32.896  -4.407  0.00  0.00    +0.042 C 
ATOM    303  OE2 GLU A  27     -13.263  34.106  -4.527  0.00  0.00    -0.550 OA
ATOM    304  OE1 GLU A  27     -12.831  31.977  -4.843  0.00  0.00    -0.550 OA
ENDBRANCH 301 302
ENDBRANCH 300 301
ENDBRANCH  53 300
ENDBRANCH  49  53
ENDBRANCH  48  51
BRANCH  48 305
ATOM    305  CB  LYS A  28      -9.985  30.266  -1.912  0.00  0.00    +0.032 C 
BRANCH 305 306
ATOM    306  CG  LYS A  28     -10.225  29.287  -0.809  0.00  0.00    +0.007 C 
BRANCH 306 307
ATOM    307  CD  LYS A  28      -9.675  27.950  -1.189  0.00  0.00    +0.051 C 
BRANCH 307 308
ATOM    308  CE  LYS A  28     -10.140  26.922  -0.199  0.00  0.00    +0.127 C 
BRANCH 308 309
ATOM    309  NZ  LYS A  28      -9.612  25.586  -0.612  0.00  0.00    +0.219 N 
ATOM    310  H   LYS A  28      -9.957  25.357  -1.544  0.00  0.00    +0.199 HD
ATOM    311  H   LYS A  28      -9.926  24.877   0.050  0.00  0.00    +0.199 HD
ATOM    312  H   LYS A  28      -8.592  25.612  -0.624  0.00  0.00    +0.199 HD
ENDBRANCH 308 309
ENDBRANCH 307 308
ENDBRANCH 306 307
ENDBRANCH 305 306
ENDBRANCH  48 305
ENDBRANCH  44  48
ENDBRANCH  42  46
ENDBRANCH  38  42
ENDBRANCH  37  40
BRANCH  37 313
ATOM    313  CB  SER A  30     -12.732  37.189  -4.133  0.00  0.00    +0.187 C 
BRANCH 313 314
ATOM    314  OG  SER A  30     -13.619  36.390  -3.368  0.00  0.00    -0.393 OA
ATOM    315  H   SER A  30     -13.444  35.452  -3.545  0.00  0.00    +0.209 HD
ENDBRANCH 313 314
ENDBRANCH  37 313
ENDBRANCH  33  37
ENDBRANCH  32  35
BRANCH  32 316
ATOM    316  CB  LYS A  31      -9.881  37.311   0.537  0.00  0.00    +0.032 C 
BRANCH 316 317
ATOM    317  CG  LYS A  31      -8.501  36.654   0.490  0.00  0.00    +0.007 C 
BRANCH 317 318
ATOM    318  CD  LYS A  31      -8.548  35.133   0.599  0.00  0.00    +0.051 C 
BRANCH 318 319
ATOM    319  CE  LYS A  31      -7.177  34.542   0.233  0.00  0.00    +0.127 C 
BRANCH 319 320
ATOM    320  NZ  LYS A  31      -7.270  33.100  -0.147  0.00  0.00    +0.219 N 
ATOM    321  H   LYS A  31      -7.868  33.003  -0.968  0.00  0.00    +0.199 HD
ATOM    322  H   LYS A  31      -7.667  32.569   0.628  0.00  0.00    +0.199 HD
ATOM    323  H   LYS A  31      -6.338  32.744  -0.361  0.00  0.00    +0.199 HD
ENDBRANCH 319 320
ENDBRANCH 318 319
ENDBRANCH 317 318
ENDBRANCH 316 317
ENDBRANCH  32 316
ENDBRANCH  28  32
ENDBRANCH  27  30
BRANCH  27 324
ATOM    324  CB  PHE A  32     -15.493  37.918  -1.164  0.00  0.00    +0.067 C 
BRANCH 324 325
ATOM    325  CG  PHE A  32     -16.789  38.607  -0.906  0.00  0.00    -0.045 A 
ATOM    326  CD2 PHE A  32     -16.806  39.828  -0.243  0.00  0.00    +0.004 A 
ATOM    327  CD1 PHE A  32     -17.987  38.069  -1.348  0.00  0.00    +0.004 A 
ATOM    328  CE2 PHE A  32     -18.000  40.493  -0.006  0.00  0.00    +0.000 A 
ATOM    329  CE1 PHE A  32     -19.187  38.731  -1.119  0.00  0.00    +0.000 A 
ATOM    330  CZ  PHE A  32     -19.191  39.941  -0.441  0.00  0.00    +0.000 A 
ENDBRANCH 324 325
ENDBRANCH  27 324
ENDBRANCH  23  27
ENDBRANCH  22  25
BRANCH  22 331
ATOM    331  CB  ILE A  33     -16.525  37.565   4.561  0.00  0.00    +0.015 C 
ATOM    332  CG2 ILE A  33     -17.398  36.946   5.629  0.00  0.00    +0.010 C 
BRANCH 331 333
ATOM    333  CG1 ILE A  33     -15.080  37.621   5.053  0.00  0.00    +0.002 C 
ATOM    334  CD1 ILE A  33     -14.715  36.483   5.956  0.00  0.00    +0.004 C 
ENDBRANCH 331 333
ENDBRANCH  22 331
ENDBRANCH  18  22
ENDBRANCH  17  20
BRANCH  17 335
ATOM    335  CB  LEU A  34     -19.926  34.112   1.369  0.00  0.00    +0.034 C 
BRANCH 335 336
ATOM    336  CG  LEU A  34     -19.195  34.638   0.157  0.00  0.00    -0.015 C 
ATOM    337  CD1 LEU A  34     -18.910  33.524  -0.821  0.00  0.00    +0.007 C 
ATOM    338  CD2 LEU A  34     -20.197  35.588  -0.460  0.00  0.00    +0.007 C 
ENDBRANCH 335 336
ENDBRANCH  17 335
ENDBRANCH  13  17
ENDBRANCH  11  15
ENDBRANCH   7  11
ENDBRANCH   6   9
BRANCH   6 339
ATOM    339  CB  LEU A  36     -21.532  27.881   3.211  0.00  0.00    +0.034 C 
BRANCH 339 340
ATOM    340  CG  LEU A  36     -20.591  27.997   2.018  0.00  0.00    -0.015 C 
ATOM    341  CD2 LEU A  36     -19.468  26.954   2.138  0.00  0.00    +0.007 C 
ATOM    342  CD1 LEU A  36     -21.341  27.824   0.708  0.00  0.00    +0.007 C 
ENDBRANCH 339 340
ENDBRANCH   6 339
ENDBRANCH   2   6
ENDBRANCH   1   4
BRANCH   1 343
ATOM    343  C   LYS A  37     -26.173  25.934   3.674  0.00  0.00    +0.234 C 
ATOM    344  O   LYS A  37     -26.274  25.619   2.483  0.00  0.00    -0.274 OA
ATOM    345  N   VAL A  38     -26.086  25.039   4.651  0.00  0.00    -0.302 N 
ATOM    346  H   VAL A  38     -26.100  25.357   5.583  0.00  0.00    +0.150 HD
BRANCH 345 347
ATOM    347  CA  VAL A  38     -25.970  23.606   4.406  0.00  0.00    +0.161 C 
BRANCH 347 348
ATOM    348  C   VAL A  38     -27.323  22.940   4.609  0.00  0.00    +0.234 C 
ATOM    349  O   VAL A  38     -27.987  23.177   5.624  0.00  0.00    -0.274 OA
ATOM    350  N   LEU A  39     -27.710  22.069   3.676  0.00  0.00    -0.302 N 
ATOM    351  H   LEU A  39     -27.174  21.979   2.855  0.00  0.00    +0.150 HD
BRANCH 350 352
ATOM    352  CA  LEU A  39     -28.906  21.245   3.835  0.00  0.00    +0.159 C 
BRANCH 352 353
ATOM    353  C   LEU A  39     -28.549  19.788   3.580  0.00  0.00    +0.234 C 
ATOM    354  O   LEU A  39     -27.995  19.455   2.527  0.00  0.00    -0.274 OA
ATOM    355  N   PHE A  40     -28.885  18.921   4.529  0.00  0.00    -0.302 N 
ATOM    356  H   PHE A  40     -29.357  19.237   5.333  0.00  0.00    +0.150 HD
BRANCH 355 357
ATOM    357  CA  PHE A  40     -28.563  17.508   4.392  0.00  0.00    +0.163 C 
BRANCH 357 358
ATOM    358  C   PHE A  40     -29.582  16.832   3.478  0.00  0.00    +0.234 C 
ATOM    359  O   PHE A  40     -30.791  16.896   3.724  0.00  0.00    -0.274 OA
ATOM    360  N   LYS A  41     -29.081  16.181   2.428  0.00  0.00    -0.302 N 
ATOM    361  H   LYS A  41     -28.105  16.082   2.346  0.00  0.00    +0.150 HD
BRANCH 360 362
ATOM    362  CA  LYS A  41     -29.943  15.610   1.395  0.00  0.00    +0.159 C 
BRANCH 362 363
ATOM    363  C   LYS A  41     -30.914  14.581   1.964  0.00  0.00    +0.234 C 
ATOM    364  O   LYS A  41     -32.074  14.510   1.540  0.00  0.00    -0.274 OA
ATOM    365  N   ALA A  42     -30.446  13.745   2.895  0.00  0.00    -0.303 N 
ATOM    366  H   ALA A  42     -29.517  13.833   3.208  0.00  0.00    +0.149 HD
BRANCH 365 367
ATOM    367  CA  ALA A  42     -31.301  12.703   3.452  0.00  0.00    +0.156 C 
ATOM    368  CB  ALA A  42     -30.467  11.737   4.297  0.00  0.00    +0.038 C 
BRANCH 367 369
ATOM    369  C   ALA A  42     -32.430  13.305   4.277  0.00  0.00    +0.234 C 
ATOM    370  O   ALA A  42     -33.569  12.824   4.217  0.00  0.00    -0.274 OA
ATOM    371  N   GLN A  43     -32.119  14.345   5.065  0.00  0.00    -0.302 N 
ATOM    372  H   GLN A  43     -31.173  14.599   5.164  0.00  0.00    +0.150 HD
BRANCH 371 373
ATOM    373  CA  GLN A  43     -33.136  15.115   5.782  0.00  0.00    +0.159 C 
BRANCH 373 374
ATOM    374  C   GLN A  43     -34.178  15.690   4.840  0.00  0.00    +0.234 C 
ATOM    375  O   GLN A  43     -35.385  15.530   5.061  0.00  0.00    -0.274 OA
ATOM    376  N   LEU A  44     -33.725  16.416   3.815  0.00  0.00    -0.302 N 
ATOM    377  H   LEU A  44     -32.756  16.565   3.723  0.00  0.00    +0.150 HD
BRANCH 376 378
ATOM    378  CA  LEU A  44     -34.631  16.995   2.826  0.00  0.00    +0.159 C 
BRANCH 378 379
ATOM    379  C   LEU A  44     -35.557  15.950   2.247  0.00  0.00    +0.234 C 
ATOM    380  O   LEU A  44     -36.777  16.146   2.180  0.00  0.00    -0.274 OA
ATOM    381  N   GLU A  45     -34.980  14.834   1.795  0.00  0.00    -0.302 N 
ATOM    382  H   GLU A  45     -34.011  14.703   1.913  0.00  0.00    +0.150 HD
BRANCH 381 383
ATOM    383  CA  GLU A  45     -35.771  13.810   1.130  0.00  0.00    +0.159 C 
BRANCH 383 384
ATOM    384  C   GLU A  45     -36.758  13.172   2.095  0.00  0.00    +0.234 C 
ATOM    385  O   GLU A  45     -37.910  12.904   1.728  0.00  0.00    -0.274 OA
ATOM    386  N   UNK A  46     -36.330  12.932   3.337  0.00  0.00    -0.302 N 
ATOM    387  H   UNK A  46     -35.400  13.142   3.583  0.00  0.00    +0.150 HD
BRANCH 386 388
ATOM    388  C   UNK A  46     -37.234  12.359   4.333  0.00  0.00    +0.159 C 
BRANCH 388 389
ATOM    389  C   UNK A  46     -38.410  13.291   4.600  0.00  0.00    +0.234 C 
ATOM    390  O   UNK A  46     -39.561  12.849   4.676  0.00  0.00    -0.274 OA
ATOM    391  N   ALA A  47     -38.140  14.591   4.727  0.00  0.00    -0.303 N 
ATOM    392  H   ALA A  47     -37.208  14.899   4.656  0.00  0.00    +0.149 HD
BRANCH 391 393
ATOM    393  CA  ALA A  47     -39.198  15.565   4.969  0.00  0.00    +0.156 C 
ATOM    394  CB  ALA A  47     -38.596  16.873   5.488  0.00  0.00    +0.038 C 
BRANCH 393 395
ATOM    395  C   ALA A  47     -40.032  15.834   3.723  0.00  0.00    +0.233 C 
ATOM    396  O   ALA A  47     -41.121  16.396   3.839  0.00  0.00    -0.274 OA
ATOM    397  N   GLY A  48     -39.549  15.442   2.546  0.00  0.00    -0.305 N 
ATOM    398  H   GLY A  48     -38.685  14.971   2.516  0.00  0.00    +0.149 HD
BRANCH 397 399
ATOM    399  CA  GLY A  48     -40.264  15.691   1.301  0.00  0.00    +0.200 C 
BRANCH 399 400
ATOM    400  C   GLY A  48     -40.456  17.155   0.963  0.00  0.00    +0.231 C 
ATOM    401  O   GLY A  48     -41.513  17.532   0.449  0.00  0.00    -0.274 OA
ATOM    402  N   VAL A  49     -39.459  17.997   1.238  0.00  0.00    -0.302 N 
ATOM    403  H   VAL A  49     -38.617  17.651   1.613  0.00  0.00    +0.150 HD
BRANCH 402 404
ATOM    404  CA  VAL A  49     -39.606  19.428   0.987  0.00  0.00    +0.161 C 
BRANCH 404 405
ATOM    405  C   VAL A  49     -38.600  19.896  -0.057  0.00  0.00    +0.234 C 
ATOM    406  O   VAL A  49     -38.178  21.058  -0.053  0.00  0.00    -0.274 OA
ATOM    407  N   GLU A  50     -38.220  19.004  -0.974  0.00  0.00    -0.302 N 
ATOM    408  H   GLU A  50     -38.580  18.088  -0.952  0.00  0.00    +0.150 HD
BRANCH 407 409
ATOM    409  CA  GLU A  50     -37.267  19.393  -2.010  0.00  0.00    +0.159 C 
BRANCH 409 410
ATOM    410  C   GLU A  50     -37.766  20.592  -2.807  0.00  0.00    +0.234 C 
ATOM    411  O   GLU A  50     -36.971  21.440  -3.225  0.00  0.00    -0.274 OA
ATOM    412  N   HIS A  51     -39.081  20.695  -3.005  0.00  0.00    -0.302 N 
ATOM    413  H   HIS A  51     -39.689  20.025  -2.618  0.00  0.00    +0.150 HD
BRANCH 412 414
ATOM    414  CA  HIS A  51     -39.620  21.796  -3.793  0.00  0.00    +0.165 C 
BRANCH 414 415
ATOM    415  C   HIS A  51     -39.408  23.145  -3.118  0.00  0.00    +0.234 C 
ATOM    416  O   HIS A  51     -39.371  24.170  -3.803  0.00  0.00    -0.274 OA
ATOM    417  N   GLN A  52     -39.308  23.174  -1.785  0.00  0.00    -0.302 N 
ATOM    418  H   GLN A  52     -39.399  22.342  -1.267  0.00  0.00    +0.150 HD
BRANCH 417 419
ATOM    419  CA  GLN A  52     -39.064  24.437  -1.096  0.00  0.00    +0.159 C 
BRANCH 419 420
ATOM    420  C   GLN A  52     -37.662  24.924  -1.386  0.00  0.00    +0.234 C 
ATOM    421  O   GLN A  52     -37.437  26.121  -1.616  0.00  0.00    -0.274 OA
ATOM    422  N   LEU A  53     -36.702  24.002  -1.407  0.00  0.00    -0.302 N 
ATOM    423  H   LEU A  53     -36.916  23.063  -1.203  0.00  0.00    +0.150 HD
BRANCH 422 424
ATOM    424  CA  LEU A  53     -35.337  24.383  -1.731  0.00  0.00    +0.159 C 
BRANCH 424 425
ATOM    425  C   LEU A  53     -35.233  24.844  -3.184  0.00  0.00    +0.234 C 
ATOM    426  O   LEU A  53     -34.522  25.811  -3.483  0.00  0.00    -0.274 OA
ATOM    427  N   ARG A  54     -35.914  24.152  -4.107  0.00  0.00    -0.302 N 
ATOM    428  H   ARG A  54     -36.430  23.358  -3.838  0.00  0.00    +0.150 HD
BRANCH 427 429
ATOM    429  CA  ARG A  54     -35.899  24.564  -5.513  0.00  0.00    +0.159 C 
BRANCH 429 430
ATOM    430  C   ARG A  54     -36.475  25.970  -5.675  0.00  0.00    +0.234 C 
ATOM    431  O   ARG A  54     -35.902  26.818  -6.370  0.00  0.00    -0.274 OA
ATOM    432  N   ARG A  55     -37.606  26.238  -5.019  0.00  0.00    -0.302 N 
ATOM    433  H   ARG A  55     -38.052  25.529  -4.501  0.00  0.00    +0.150 HD
BRANCH 432 434
ATOM    434  CA  ARG A  55     -38.185  27.576  -5.065  0.00  0.00    +0.159 C 
BRANCH 434 435
ATOM    435  C   ARG A  55     -37.246  28.601  -4.458  0.00  0.00    +0.234 C 
ATOM    436  O   ARG A  55     -37.057  29.684  -5.014  0.00  0.00    -0.274 OA
ATOM    437  N   GLU A  56     -36.679  28.289  -3.290  0.00  0.00    -0.302 N 
ATOM    438  H   GLU A  56     -36.899  27.433  -2.856  0.00  0.00    +0.150 HD
BRANCH 437 439
ATOM    439  CA  GLU A  56     -35.738  29.201  -2.650  0.00  0.00    +0.159 C 
BRANCH 439 440
ATOM    440  C   GLU A  56     -34.632  29.591  -3.619  0.00  0.00    +0.234 C 
ATOM    441  O   GLU A  56     -34.317  30.776  -3.781  0.00  0.00    -0.274 OA
ATOM    442  N   VAL A  57     -34.051  28.601  -4.301  0.00  0.00    -0.302 N 
ATOM    443  H   VAL A  57     -34.370  27.676  -4.194  0.00  0.00    +0.150 HD
BRANCH 442 444
ATOM    444  CA  VAL A  57     -32.946  28.891  -5.203  0.00  0.00    +0.161 C 
BRANCH 444 445
ATOM    445  C   VAL A  57     -33.452  29.633  -6.425  0.00  0.00    +0.234 C 
ATOM    446  O   VAL A  57     -32.882  30.652  -6.832  0.00  0.00    -0.274 OA
ATOM    447  N   UNK A  58     -34.543  29.146  -7.012  0.00  0.00    -0.302 N 
ATOM    448  H   UNK A  58     -35.030  28.397  -6.598  0.00  0.00    +0.150 HD
BRANCH 447 449
ATOM    449  C   UNK A  58     -35.020  29.717  -8.267  0.00  0.00    +0.159 C 
BRANCH 449 450
ATOM    450  C   UNK A  58     -35.472  31.153  -8.073  0.00  0.00    +0.234 C 
ATOM    451  O   UNK A  58     -35.282  31.995  -8.954  0.00  0.00    -0.274 OA
ATOM    452  N   ILE A  59     -36.059  31.461  -6.926  0.00  0.00    -0.302 N 
ATOM    453  H   ILE A  59     -36.117  30.787  -6.210  0.00  0.00    +0.150 HD
BRANCH 452 454
ATOM    454  CA  ILE A  59     -36.619  32.788  -6.716  0.00  0.00    +0.162 C 
BRANCH 454 455
ATOM    455  C   ILE A  59     -35.561  33.760  -6.196  0.00  0.00    +0.234 C 
ATOM    456  O   ILE A  59     -35.355  34.842  -6.754  0.00  0.00    -0.274 OA
ATOM    457  N   GLN A  60     -34.853  33.383  -5.136  0.00  0.00    -0.302 N 
ATOM    458  H   GLN A  60     -34.945  32.468  -4.784  0.00  0.00    +0.150 HD
BRANCH 457 459
ATOM    459  CA  GLN A  60     -33.941  34.320  -4.494  0.00  0.00    +0.159 C 
BRANCH 459 460
ATOM    460  C   GLN A  60     -32.757  34.654  -5.394  0.00  0.00    +0.234 C 
ATOM    461  O   GLN A  60     -32.212  35.756  -5.304  0.00  0.00    -0.274 OA
ATOM    462  N   UNK A  61     -32.366  33.724  -6.275  0.00  0.00    -0.301 N 
ATOM    463  H   UNK A  61     -32.826  32.854  -6.290  0.00  0.00    +0.150 HD
BRANCH 462 464
ATOM    464  C   UNK A  61     -31.271  33.969  -7.217  0.00  0.00    +0.184 C 
BRANCH 464 465
ATOM    465  C   UNK A  61     -31.495  35.224  -8.047  0.00  0.00    +0.236 C 
ATOM    466  O   UNK A  61     -30.537  35.932  -8.376  0.00  0.00    -0.274 OA
ATOM    467  N   UNK A  61     -32.741  35.498  -8.437  0.00  0.00    -0.302 N 
ATOM    468  H   UNK A  61     -33.488  34.965  -8.082  0.00  0.00    +0.150 HD
BRANCH 467 469
ATOM    469  C   UNK A  61     -33.013  36.576  -9.382  0.00  0.00    +0.164 C 
BRANCH 469 470
ATOM    470  C   UNK A  61     -33.441  37.882  -8.727  0.00  0.00    +0.234 C 
ATOM    471  O   UNK A  61     -33.624  38.874  -9.433  0.00  0.00    -0.274 OA
ATOM    472  N   UNK A  61     -33.570  37.926  -7.411  0.00  0.00    -0.302 N 
ATOM    473  H   UNK A  61     -33.431  37.105  -6.886  0.00  0.00    +0.150 HD
BRANCH 472 474
ATOM    474  C   UNK A  61     -33.913  39.162  -6.723  0.00  0.00    +0.159 C 
BRANCH 474 475
ATOM    475  C   UNK A  61     -32.655  39.976  -6.456  0.00  0.00    +0.234 C 
ATOM    476  O   UNK A  61     -31.628  39.436  -6.037  0.00  0.00    -0.274 OA
ATOM    477  N   UNK A  61     -32.736  41.280  -6.718  0.00  0.00    -0.302 N 
ATOM    478  H   UNK A  61     -33.575  41.635  -7.092  0.00  0.00    +0.150 HD
BRANCH 477 479
ATOM    479  C   UNK A  61     -31.628  42.207  -6.472  0.00  0.00    +0.159 C 
BRANCH 479 480
ATOM    480  C   UNK A  61     -32.213  43.462  -5.840  0.00  0.00    +0.234 C 
ATOM    481  O   UNK A  61     -32.761  44.314  -6.545  0.00  0.00    -0.274 OA
ATOM    482  N   UNK A  61     -32.079  43.572  -4.520  0.00  0.00    -0.302 N 
ATOM    483  H   UNK A  61     -31.609  42.855  -4.036  0.00  0.00    +0.150 HD
BRANCH 482 484
ATOM    484  C   UNK A  61     -32.592  44.696  -3.761  0.00  0.00    +0.165 C 
BRANCH 484 485
ATOM    485  C   UNK A  61     -31.773  44.819  -2.488  0.00  0.00    +0.237 C 
ATOM    486  O   UNK A  61     -31.417  43.788  -1.890  0.00  0.00    -0.274 OA
ATOM    487  N   UNK A  61     -31.472  46.043  -2.047  0.00  0.00    -0.288 N 
ATOM    488  C   UNK A  61     -30.597  46.212  -0.877  0.00  0.00    +0.162 C 
ATOM    489  C   UNK A  61     -30.476  47.738  -0.747  0.00  0.00    +0.033 C 
ATOM    490  C   UNK A  61     -30.885  48.270  -2.066  0.00  0.00    +0.021 C 
ATOM    491  C   UNK A  61     -31.914  47.343  -2.581  0.00  0.00    +0.109 C 
BRANCH 488 492
ATOM    492  C   UNK A  61     -31.153  45.614   0.390  0.00  0.00    +0.234 C 
ATOM    493  O   UNK A  61     -30.380  45.335   1.319  0.00  0.00    -0.274 OA
ATOM    494  N   UNK A  61     -32.469  45.440   0.479  0.00  0.00    -0.302 N 
ATOM    495  H   UNK A  61     -33.037  45.703  -0.281  0.00  0.00    +0.150 HD
BRANCH 494 496
ATOM    496  C   UNK A  61     -33.096  44.874   1.662  0.00  0.00    +0.168 C 
BRANCH 496 497
ATOM    497  C   UNK A  61     -33.524  43.427   1.454  0.00  0.00    +0.234 C 
ATOM    498  O   UNK A  61     -34.345  42.914   2.221  0.00  0.00    -0.274 OA
ATOM    499  N   UNK A  61     -32.963  42.748   0.452  0.00  0.00    -0.302 N 
ATOM    500  H   UNK A  61     -32.391  43.231  -0.188  0.00  0.00    +0.150 HD
BRANCH 499 501
ATOM    501  C   UNK A  61     -33.167  41.316   0.271  0.00  0.00    +0.162 C 
BRANCH 501 502
ATOM    502  C   UNK A  61     -31.799  40.647   0.241  0.00  0.00    +0.234 C 
ATOM    503  O   UNK A  61     -30.885  41.099  -0.465  0.00  0.00    -0.274 OA
ATOM    504  N   UNK A  61     -31.652  39.588   1.020  0.00  0.00    -0.302 N 
ATOM    505  H   UNK A  61     -32.411  39.263   1.556  0.00  0.00    +0.150 HD
BRANCH 504 506
ATOM    506  C   UNK A  61     -30.370  38.902   1.087  0.00  0.00    +0.159 C 
BRANCH 506 507
ATOM    507  C   UNK A  61     -30.075  38.218  -0.246  0.00  0.00    +0.234 C 
ATOM    508  O   UNK A  61     -30.931  37.538  -0.813  0.00  0.00    -0.274 OA
ATOM    509  N   UNK A  61     -28.859  38.393  -0.738  0.00  0.00    -0.302 N 
ATOM    510  H   UNK A  61     -28.192  38.892  -0.213  0.00  0.00    +0.150 HD
BRANCH 509 511
ATOM    511  C   UNK A  61     -28.490  37.861  -2.042  0.00  0.00    +0.159 C 
BRANCH 511 512
ATOM    512  C   UNK A  61     -28.131  36.376  -1.941  0.00  0.00    +0.233 C 
ATOM    513  O   UNK A  61     -27.498  35.927  -0.980  0.00  0.00    -0.274 OA
ATOM    514  N   UNK A  61     -28.566  35.607  -2.925  0.00  0.00    -0.314 N 
ATOM    515  H   UNK A  61     -29.196  35.990  -3.577  0.00  0.00    +0.149 HD
BRANCH 514 516
ATOM    516  C   UNK A  61     -28.155  34.219  -3.088  0.00  0.00    +0.101 C 
ATOM    517  C   UNK A  61     -29.362  33.291  -3.212  0.00  0.00    +0.024 C 
ENDBRANCH 514 516
ENDBRANCH 511 512
BRANCH 511 518
ATOM    518  C   UNK A  61     -27.315  38.662  -2.601  0.00  0.00    +0.035 C 
BRANCH 518 519
ATOM    519  C   UNK A  61     -27.757  39.963  -3.284  0.00  0.00    +0.039 C 
BRANCH 519 520
ATOM    520  C   UNK A  61     -27.389  40.027  -4.747  0.00  0.00    +0.196 C 
BRANCH 520 521
ATOM    521  N   UNK A  61     -27.720  38.795  -5.448  0.00  0.00    -0.279 N 
ATOM    522  C   UNK A  61     -27.047  38.328  -6.492  0.00  0.00    +0.341 C 
ATOM    523  N   UNK A  61     -26.018  38.992  -7.006  0.00  0.00    -0.292 N 
ATOM    524  N   UNK A  61     -27.406  37.160  -7.027  0.00  0.00    -0.292 N 
ATOM    525  H   UNK A  61     -28.492  38.275  -5.127  0.00  0.00    +0.258 HD
ATOM    526  H   UNK A  61     -25.534  38.626  -7.781  0.00  0.00    +0.255 HD
ATOM    527  H   UNK A  61     -25.740  39.850  -6.612  0.00  0.00    +0.255 HD
ATOM    528  H   UNK A  61     -26.915  36.802  -7.802  0.00  0.00    +0.255 HD
ATOM    529  H   UNK A  61     -28.162  36.656  -6.647  0.00  0.00    +0.255 HD
ENDBRANCH 520 521
ENDBRANCH 519 520
ENDBRANCH 518 519
ENDBRANCH 511 518
ENDBRANCH 509 511
ENDBRANCH 506 507
BRANCH 506 530
ATOM    530  C   UNK A  61     -30.378  37.888   2.232  0.00  0.00    +0.034 C 
BRANCH 530 531
ATOM    531  C   UNK A  61     -28.999  37.344   2.559  0.00  0.00    -0.015 C 
ATOM    532  C   UNK A  61     -28.237  38.354   3.465  0.00  0.00    +0.007 C 
ATOM    533  C   UNK A  61     -29.137  35.973   3.221  0.00  0.00    +0.007 C 
ENDBRANCH 530 531
ENDBRANCH 506 530
ENDBRANCH 504 506
ENDBRANCH 501 502
BRANCH 501 534
ATOM    534  C   UNK A  61     -33.968  41.003  -1.003  0.00  0.00    +0.015 C 
ATOM    535  C   UNK A  61     -34.100  39.502  -1.192  0.00  0.00    +0.010 C 
BRANCH 534 536
ATOM    536  C   UNK A  61     -35.354  41.654  -0.934  0.00  0.00    +0.002 C 
ATOM    537  C   UNK A  61     -36.100  41.570  -2.256  0.00  0.00    +0.004 C 
ENDBRANCH 534 536
ENDBRANCH 501 534
ENDBRANCH 499 501
ENDBRANCH 496 497
BRANCH 496 538
ATOM    538  C   UNK A  61     -34.282  45.738   2.088  0.00  0.00    +0.127 C 
BRANCH 538 539
ATOM    539  C   UNK A  61     -33.861  47.160   2.408  0.00  0.00    +0.213 C 
ATOM    540  O   UNK A  61     -34.185  48.084   1.672  0.00  0.00    -0.276 OA
ATOM    541  N   UNK A  61     -33.124  47.339   3.508  0.00  0.00    -0.329 N 
ATOM    542  H   UNK A  61     -32.826  48.243   3.759  0.00  0.00    +0.145 HD
ATOM    543  H   UNK A  61     -32.879  46.567   4.068  0.00  0.00    +0.145 HD
ENDBRANCH 538 539
ENDBRANCH 496 538
ENDBRANCH 494 496
ENDBRANCH 488 492
ENDBRANCH 484 485
BRANCH 484 544
ATOM    544  C   UNK A  61     -34.073  44.523  -3.415  0.00  0.00    +0.086 C 
BRANCH 544 545
ATOM    545  C   UNK A  61     -34.697  45.744  -2.819  0.00  0.00    +0.038 A 
ATOM    546  N   UNK A  61     -34.657  46.012  -1.466  0.00  0.00    -0.348 N 
ATOM    547  C   UNK A  61     -35.361  46.778  -3.389  0.00  0.00    +0.133 A 
ATOM    548  C   UNK A  61     -35.278  47.154  -1.229  0.00  0.00    +0.196 A 
ATOM    549  N   UNK A  61     -35.719  47.636  -2.377  0.00  0.00    -0.244 NA
ATOM    550  H   UNK A  61     -34.233  45.442  -0.785  0.00  0.00    +0.166 HD
ENDBRANCH 544 545
ENDBRANCH 484 544
ENDBRANCH 482 484
ENDBRANCH 479 480
BRANCH 479 551
ATOM    551  C   UNK A  61     -30.872  42.554  -7.747  0.00  0.00    +0.035 C 
BRANCH 551 552
ATOM    552  C   UNK A  61     -30.426  41.372  -8.540  0.00  0.00    +0.039 C 
BRANCH 552 553
ATOM    553  C   UNK A  61     -28.949  41.107  -8.330  0.00  0.00    +0.196 C 
BRANCH 553 554
ATOM    554  N   UNK A  61     -28.455  40.117  -9.280  0.00  0.00    -0.279 N 
ATOM    555  C   UNK A  61     -28.816  38.838  -9.273  0.00  0.00    +0.341 C 
ATOM    556  N   UNK A  61     -29.681  38.367  -8.385  0.00  0.00    -0.292 N 
ATOM    557  N   UNK A  61     -28.296  38.011 -10.178  0.00  0.00    -0.292 N 
ATOM    558  H   UNK A  61     -27.816  40.414  -9.968  0.00  0.00    +0.258 HD
ATOM    559  H   UNK A  61     -29.933  37.415  -8.400  0.00  0.00    +0.255 HD
ATOM    560  H   UNK A  61     -30.071  38.969  -7.711  0.00  0.00    +0.255 HD
ATOM    561  H   UNK A  61     -27.653  38.349 -10.842  0.00  0.00    +0.255 HD
ATOM    562  H   UNK A  61     -28.555  37.061 -10.183  0.00  0.00    +0.255 HD
ENDBRANCH 553 554
ENDBRANCH 552 553
ENDBRANCH 551 552
ENDBRANCH 479 551
ENDBRANCH 477 479
ENDBRANCH 474 475
BRANCH 474 563
ATOM    563  C   UNK A  61     -34.626  38.868  -5.403  0.00  0.00    +0.034 C 
BRANCH 563 564
ATOM    564  C   UNK A  61     -35.886  38.008  -5.514  0.00  0.00    -0.015 C 
ATOM    565  C   UNK A  61     -36.377  37.634  -4.119  0.00  0.00    +0.007 C 
ATOM    566  C   UNK A  61     -36.973  38.720  -6.303  0.00  0.00    +0.007 C 
ENDBRANCH 563 564
ENDBRANCH 474 563
ENDBRANCH 472 474
ENDBRANCH 469 470
BRANCH 469 567
ATOM    567  C   UNK A  61     -34.067  36.152 -10.415  0.00  0.00    +0.084 C 
BRANCH 567 568
ATOM    568  C   UNK A  61     -33.772  34.844 -11.084  0.00  0.00    +0.044 C 
ATOM    569  N   UNK A  61     -32.719  34.676 -11.960  0.00  0.00    -0.243 NA
ATOM    570  C   UNK A  61     -34.403  33.647 -11.023  0.00  0.00    +0.194 C 
ATOM    571  C   UNK A  61     -32.705  33.429 -12.397  0.00  0.00    +0.215 C 
ATOM    572  N   UNK A  61     -33.716  32.783 -11.842  0.00  0.00    -0.266 NA
ENDBRANCH 567 568
ENDBRANCH 469 567
ENDBRANCH 467 469
ENDBRANCH 464 465
BRANCH 464 573
ATOM    573  C   UNK A  61     -31.095  32.776  -8.166  0.00  0.00    +0.187 C 
BRANCH 573 574
ATOM    574  O   UNK A  61     -30.718  31.606  -7.461  0.00  0.00    -0.393 OA
ATOM    575  H   UNK A  61     -31.411  31.376  -6.822  0.00  0.00    +0.209 HD
ENDBRANCH 573 574
ENDBRANCH 464 573
ENDBRANCH 462 464
ENDBRANCH 459 460
BRANCH 459 576
ATOM    576  CB  GLN A  60     -33.474  33.740  -3.160  0.00  0.00    +0.041 C 
BRANCH 576 577
ATOM    577  CG  GLN A  60     -32.738  34.706  -2.237  0.00  0.00    +0.098 C 
BRANCH 577 578
ATOM    578  CD  GLN A  60     -32.577  34.167  -0.810  0.00  0.00    +0.211 C 
ATOM    579  OE1 GLN A  60     -33.167  33.152  -0.452  0.00  0.00    -0.276 OA
ATOM    580  NE2 GLN A  60     -31.796  34.870   0.018  0.00  0.00    -0.329 N 
ATOM    581  H   GLN A  60     -31.339  35.680  -0.305  0.00  0.00    +0.145 HD
ATOM    582  H   GLN A  60     -31.679  34.578   0.951  0.00  0.00    +0.145 HD
ENDBRANCH 577 578
ENDBRANCH 576 577
ENDBRANCH 459 576
ENDBRANCH 457 459
ENDBRANCH 454 455
BRANCH 454 583
ATOM    583  CB  ILE A  59     -37.836  32.686  -5.767  0.00  0.00    +0.015 C 
ATOM    584  CG2 ILE A  59     -38.180  34.042  -5.167  0.00  0.00    +0.010 C 
BRANCH 583 585
ATOM    585  CG1 ILE A  59     -39.046  32.066  -6.497  0.00  0.00    +0.002 C 
ATOM    586  CD1 ILE A  59     -40.206  31.733  -5.574  0.00  0.00    +0.004 C 
ENDBRANCH 583 585
ENDBRANCH 454 583
ENDBRANCH 452 454
ENDBRANCH 449 450
BRANCH 449 587
ATOM    587  C   UNK A  58     -36.163  28.869  -8.832  0.00  0.00    +0.028 C 
ATOM    588  C   UNK A  58     -36.946  29.519  -9.978  0.00  0.00    +0.006 C 
ENDBRANCH 449 587
ENDBRANCH 447 449
ENDBRANCH 444 445
BRANCH 444 589
ATOM    589  CB  VAL A  57     -32.213  27.598  -5.595  0.00  0.00    +0.012 C 
ATOM    590  CG1 VAL A  57     -31.303  27.866  -6.781  0.00  0.00    +0.009 C 
ATOM    591  CG2 VAL A  57     -31.427  27.076  -4.395  0.00  0.00    +0.009 C 
ENDBRANCH 444 589
ENDBRANCH 442 444
ENDBRANCH 439 440
BRANCH 439 592
ATOM    592  CB  GLU A  56     -35.159  28.543  -1.393  0.00  0.00    +0.037 C 
BRANCH 592 593
ATOM    593  CG  GLU A  56     -34.206  29.403  -0.547  0.00  0.00    +0.054 C 
BRANCH 593 594
ATOM    594  CD  GLU A  56     -33.988  28.786   0.836  0.00  0.00    +0.042 C 
ATOM    595  OE1 GLU A  56     -34.786  27.889   1.201  0.00  0.00    -0.550 OA
ATOM    596  OE2 GLU A  56     -33.029  29.177   1.553  0.00  0.00    -0.550 OA
ENDBRANCH 593 594
ENDBRANCH 592 593
ENDBRANCH 439 592
ENDBRANCH 437 439
ENDBRANCH 434 435
BRANCH 434 597
ATOM    597  CB  ARG A  55     -39.512  27.594  -4.328  0.00  0.00    +0.035 C 
BRANCH 597 598
ATOM    598  CG  ARG A  55     -40.598  26.892  -5.107  0.00  0.00    +0.039 C 
BRANCH 598 599
ATOM    599  CD  ARG A  55     -41.900  27.175  -4.484  0.00  0.00    +0.196 C 
BRANCH 599 600
ATOM    600  NE  ARG A  55     -42.997  26.448  -5.107  0.00  0.00    -0.279 N 
ATOM    601  CZ  ARG A  55     -44.135  26.220  -4.470  0.00  0.00    +0.341 C 
ATOM    602  NH2 ARG A  55     -44.315  26.630  -3.221  0.00  0.00    -0.292 N 
ATOM    603  NH1 ARG A  55     -45.112  25.576  -5.094  0.00  0.00    -0.292 N 
ATOM    604  H   ARG A  55     -42.889  26.117  -6.028  0.00  0.00    +0.258 HD
ATOM    605  H   ARG A  55     -43.594  27.109  -2.751  0.00  0.00    +0.255 HD
ATOM    606  H   ARG A  55     -45.169  26.456  -2.764  0.00  0.00    +0.255 HD
ATOM    607  H   ARG A  55     -44.986  25.269  -6.021  0.00  0.00    +0.255 HD
ATOM    608  H   ARG A  55     -45.964  25.405  -4.630  0.00  0.00    +0.255 HD
ENDBRANCH 599 600
ENDBRANCH 598 599
ENDBRANCH 597 598
ENDBRANCH 434 597
ENDBRANCH 432 434
ENDBRANCH 429 430
BRANCH 429 609
ATOM    609  CB  ARG A  54     -36.684  23.558  -6.373  0.00  0.00    +0.035 C 
BRANCH 609 610
ATOM    610  CG  ARG A  54     -36.649  23.860  -7.878  0.00  0.00    +0.039 C 
BRANCH 610 611
ATOM    611  CD  ARG A  54     -37.689  23.059  -8.655  0.00  0.00    +0.196 C 
BRANCH 611 612
ATOM    612  NE  ARG A  54     -39.029  23.493  -8.279  0.00  0.00    -0.279 N 
ATOM    613  CZ  ARG A  54     -39.965  22.694  -7.784  0.00  0.00    +0.341 C 
ATOM    614  NH1 ARG A  54     -39.765  21.390  -7.649  0.00  0.00    -0.292 N 
ATOM    615  NH2 ARG A  54     -41.128  23.216  -7.409  0.00  0.00    -0.292 N 
ATOM    616  H   ARG A  54     -39.255  24.444  -8.401  0.00  0.00    +0.258 HD
ATOM    617  H   ARG A  54     -38.907  20.993  -7.924  0.00  0.00    +0.255 HD
ATOM    618  H   ARG A  54     -40.474  20.819  -7.274  0.00  0.00    +0.255 HD
ATOM    619  H   ARG A  54     -41.287  24.183  -7.505  0.00  0.00    +0.255 HD
ATOM    620  H   ARG A  54     -41.830  22.636  -7.035  0.00  0.00    +0.255 HD
ENDBRANCH 611 612
ENDBRANCH 610 611
ENDBRANCH 609 610
ENDBRANCH 429 609
ENDBRANCH 427 429
ENDBRANCH 424 425
BRANCH 424 621
ATOM    621  CB  LEU A  53     -34.399  23.206  -1.449  0.00  0.00    +0.034 C 
BRANCH 621 622
ATOM    622  CG  LEU A  53     -32.921  23.363  -1.812  0.00  0.00    -0.015 C 
ATOM    623  CD2 LEU A  53     -32.325  24.571  -1.129  0.00  0.00    +0.007 C 
ATOM    624  CD1 LEU A  53     -32.153  22.115  -1.452  0.00  0.00    +0.007 C 
ENDBRANCH 621 622
ENDBRANCH 424 621
ENDBRANCH 422 424
ENDBRANCH 419 420
BRANCH 419 625
ATOM    625  CB  GLN A  52     -39.303  24.271   0.413  0.00  0.00    +0.041 C 
BRANCH 625 626
ATOM    626  CG  GLN A  52     -40.797  23.982   0.772  0.00  0.00    +0.098 C 
BRANCH 626 627
ATOM    627  CD  GLN A  52     -41.011  23.526   2.227  0.00  0.00    +0.211 C 
ATOM    628  OE1 GLN A  52     -40.189  23.782   3.092  0.00  0.00    -0.276 OA
ATOM    629  NE2 GLN A  52     -42.108  22.825   2.479  0.00  0.00    -0.329 N 
ATOM    630  H   GLN A  52     -42.749  22.638   1.756  0.00  0.00    +0.145 HD
ATOM    631  H   GLN A  52     -42.281  22.492   3.389  0.00  0.00    +0.145 HD
ENDBRANCH 626 627
ENDBRANCH 625 626
ENDBRANCH 419 625
ENDBRANCH 417 419
ENDBRANCH 414 415
BRANCH 414 632
ATOM    632  CB  HIS A  51     -41.107  21.567  -4.049  0.00  0.00    +0.086 C 
BRANCH 632 633
ATOM    633  CG  HIS A  51     -41.932  21.523  -2.802  0.00  0.00    +0.038 A 
ATOM    634  ND1 HIS A  51     -42.030  20.393  -2.018  0.00  0.00    -0.348 N 
ATOM    635  CD2 HIS A  51     -42.718  22.458  -2.216  0.00  0.00    +0.133 A 
ATOM    636  CE1 HIS A  51     -42.829  20.638  -0.994  0.00  0.00    +0.196 A 
ATOM    637  NE2 HIS A  51     -43.269  21.881  -1.097  0.00  0.00    -0.244 NA
ATOM    638  H   HIS A  51     -41.576  19.537  -2.194  0.00  0.00    +0.166 HD
ENDBRANCH 632 633
ENDBRANCH 414 632
ENDBRANCH 412 414
ENDBRANCH 409 410
BRANCH 409 639
ATOM    639  CB  GLU A  50     -37.001  18.215  -2.948  0.00  0.00    +0.037 C 
BRANCH 639 640
ATOM    640  CG  GLU A  50     -36.388  16.997  -2.285  0.00  0.00    +0.054 C 
BRANCH 640 641
ATOM    641  CD  GLU A  50     -37.428  15.918  -1.938  0.00  0.00    +0.042 C 
ATOM    642  OE2 GLU A  50     -38.593  16.241  -1.586  0.00  0.00    -0.550 OA
ATOM    643  OE1 GLU A  50     -37.073  14.725  -2.023  0.00  0.00    -0.550 OA
ENDBRANCH 640 641
ENDBRANCH 639 640
ENDBRANCH 409 639
ENDBRANCH 407 409
ENDBRANCH 404 405
BRANCH 404 644
ATOM    644  CB  VAL A  49     -39.466  20.244   2.287  0.00  0.00    +0.012 C 
ATOM    645  CG2 VAL A  49     -40.570  19.878   3.262  0.00  0.00    +0.009 C 
ATOM    646  CG1 VAL A  49     -38.099  20.018   2.915  0.00  0.00    +0.009 C 
ENDBRANCH 404 644
ENDBRANCH 402 404
ENDBRANCH 399 400
ENDBRANCH 397 399
ENDBRANCH 393 395
ENDBRANCH 391 393
ENDBRANCH 388 389
BRANCH 388 647
ATOM    647  C   UNK A  46     -36.466  12.072   5.625  0.00  0.00    +0.028 C 
ATOM    648  C   UNK A  46     -37.322  11.620   6.791  0.00  0.00    +0.006 C 
ENDBRANCH 388 647
ENDBRANCH 386 388
ENDBRANCH 383 384
BRANCH 383 649
ATOM    649  CB  GLU A  45     -34.847  12.759   0.519  0.00  0.00    +0.037 C 
BRANCH 649 650
ATOM    650  CG  GLU A  45     -35.593  11.703  -0.288  0.00  0.00    +0.054 C 
BRANCH 650 651
ATOM    651  CD  GLU A  45     -34.662  10.688  -0.915  0.00  0.00    +0.042 C 
ATOM    652  OE2 GLU A  45     -33.435  10.938  -0.940  0.00  0.00    -0.550 OA
ATOM    653  OE1 GLU A  45     -35.161   9.645  -1.383  0.00  0.00    -0.550 OA
ENDBRANCH 650 651
ENDBRANCH 649 650
ENDBRANCH 383 649
ENDBRANCH 381 383
ENDBRANCH 378 379
BRANCH 378 654
ATOM    654  CB  LEU A  44     -33.828  17.636   1.700  0.00  0.00    +0.034 C 
BRANCH 654 655
ATOM    655  CG  LEU A  44     -33.227  18.987   2.037  0.00  0.00    -0.015 C 
ATOM    656  CD1 LEU A  44     -32.204  19.334   0.972  0.00  0.00    +0.007 C 
ATOM    657  CD2 LEU A  44     -34.363  20.019   2.089  0.00  0.00    +0.007 C 
ENDBRANCH 654 655
ENDBRANCH 378 654
ENDBRANCH 376 378
ENDBRANCH 373 374
BRANCH 373 658
ATOM    658  CB  GLN A  43     -32.483  16.260   6.541  0.00  0.00    +0.041 C 
BRANCH 658 659
ATOM    659  CG  GLN A  43     -31.805  15.948   7.837  0.00  0.00    +0.098 C 
BRANCH 659 660
ATOM    660  CD  GLN A  43     -31.992  17.114   8.810  0.00  0.00    +0.211 C 
ATOM    661  OE1 GLN A  43     -33.117  17.594   9.037  0.00  0.00    -0.276 OA
ATOM    662  NE2 GLN A  43     -30.884  17.599   9.358  0.00  0.00    -0.329 N 
ATOM    663  H   GLN A  43     -30.013  17.189   9.152  0.00  0.00    +0.145 HD
ATOM    664  H   GLN A  43     -30.934  18.368   9.971  0.00  0.00    +0.145 HD
ENDBRANCH 659 660
ENDBRANCH 658 659
ENDBRANCH 373 658
ENDBRANCH 371 373
ENDBRANCH 367 369
ENDBRANCH 365 367
ENDBRANCH 362 363
BRANCH 362 665
ATOM    665  CB  LYS A  41     -29.079  14.959   0.316  0.00  0.00    +0.032 C 
BRANCH 665 666
ATOM    666  CG  LYS A  41     -28.415  15.917  -0.656  0.00  0.00    +0.007 C 
BRANCH 666 667
ATOM    667  CD  LYS A  41     -27.703  15.109  -1.722  0.00  0.00    +0.051 C 
BRANCH 667 668
ATOM    668  CE  LYS A  41     -27.107  15.982  -2.781  0.00  0.00    +0.127 C 
BRANCH 668 669
ATOM    669  NZ  LYS A  41     -26.562  15.117  -3.854  0.00  0.00    +0.219 N 
ATOM    670  H   LYS A  41     -27.312  14.548  -4.246  0.00  0.00    +0.199 HD
ATOM    671  H   LYS A  41     -25.841  14.508  -3.467  0.00  0.00    +0.199 HD
ATOM    672  H   LYS A  41     -26.158  15.699  -4.588  0.00  0.00    +0.199 HD
ENDBRANCH 668 669
ENDBRANCH 667 668
ENDBRANCH 666 667
ENDBRANCH 665 666
ENDBRANCH 362 665
ENDBRANCH 360 362
ENDBRANCH 357 358
BRANCH 357 673
ATOM    673  CB  PHE A  40     -28.493  16.850   5.767  0.00  0.00    +0.067 C 
BRANCH 673 674
ATOM    674  CG  PHE A  40     -27.177  17.070   6.459  0.00  0.00    -0.045 A 
ATOM    675  CD2 PHE A  40     -26.950  18.221   7.206  0.00  0.00    +0.004 A 
ATOM    676  CD1 PHE A  40     -26.147  16.147   6.323  0.00  0.00    +0.004 A 
ATOM    677  CE2 PHE A  40     -25.729  18.439   7.829  0.00  0.00    +0.000 A 
ATOM    678  CE1 PHE A  40     -24.919  16.354   6.945  0.00  0.00    +0.000 A 
ATOM    679  CZ  PHE A  40     -24.712  17.506   7.702  0.00  0.00    +0.000 A 
ENDBRANCH 673 674
ENDBRANCH 357 673
ENDBRANCH 355 357
ENDBRANCH 352 353
BRANCH 352 680
ATOM    680  CB  LEU A  39     -30.027  21.682   2.889  0.00  0.00    +0.034 C 
BRANCH 680 681
ATOM    681  CG  LEU A  39     -30.447  23.145   2.987  0.00  0.00    -0.015 C 
ATOM    682  CD1 LEU A  39     -29.765  23.972   1.888  0.00  0.00    +0.007 C 
ATOM    683  CD2 LEU A  39     -31.978  23.276   2.880  0.00  0.00    +0.007 C 
ENDBRANCH 680 681
ENDBRANCH 352 680
ENDBRANCH 350 352
ENDBRANCH 347 348
BRANCH 347 684
ATOM    684  CB  VAL A  38     -24.921  22.977   5.337  0.00  0.00    +0.012 C 
ATOM    685  CG2 VAL A  38     -24.879  21.451   5.143  0.00  0.00    +0.009 C 
ATOM    686  CG1 VAL A  38     -23.550  23.622   5.084  0.00  0.00    +0.009 C 
ENDBRANCH 347 684
ENDBRANCH 345 347
ENDBRANCH   1 343
BRANCH   1 687
ATOM    687  CB  LYS A  37     -27.465  28.110   3.678  0.00  0.00    +0.032 C 
BRANCH 687 688
ATOM    688  CG  LYS A  37     -28.747  27.387   4.112  0.00  0.00    +0.007 C 
BRANCH 688 689
ATOM    689  CD  LYS A  37     -29.989  28.224   3.815  0.00  0.00    +0.051 C 
BRANCH 689 690
ATOM    690  CE  LYS A  37     -31.283  27.540   4.364  0.00  0.00    +0.127 C 
BRANCH 690 691
ATOM    691  NZ  LYS A  37     -32.459  28.459   4.215  0.00  0.00    +0.219 N 
ATOM    692  H   LYS A  37     -32.291  29.315   4.743  0.00  0.00    +0.199 HD
ATOM    693  H   LYS A  37     -33.297  27.999   4.571  0.00  0.00    +0.199 HD
ATOM    694  H   LYS A  37     -32.589  28.688   3.230  0.00  0.00    +0.199 HD
ENDBRANCH 690 691
ENDBRANCH 689 690
ENDBRANCH 688 689
ENDBRANCH 687 688
ENDBRANCH   1 687
TORSDOF 280
REMARK  Name = /Users/wangyang/Desktop/Breast_cancer_brain_metastasis/wang_Gene/AIDD/15_Protein_ligand_docking/data_7ztl/protein.pdb
REMARK  1290 active torsions:
REMARK  status: ('A' for Active; 'I' for Inactive)
REMARK    1  A    between atoms: N_1  and  CA_2
REMARK    2  A    between atoms: CA_2  and  C_3
REMARK    3  A    between atoms: N_5  and  CA_6
REMARK    4  A    between atoms: CA_6  and  C_7
REMARK    5  A    between atoms: CA_6  and  CB_9
REMARK    6  A    between atoms: N_10  and  CA_11
REMARK    7  A    between atoms: CA_11  and  C_12
REMARK    8  A    between atoms: CA_11  and  CB_14
REMARK    9  A    between atoms: CB_14  and  CG_15
REMARK   10  A    between atoms: N_24  and  CA_25
REMARK   11  A    between atoms: CA_25  and  C_26
REMARK   12  A    between atoms: CA_25  and  CB_28
REMARK   13  A    between atoms: N_29  and  CA_30
REMARK   14  A    between atoms: CA_30  and  C_31
REMARK   15  A    between atoms: CA_30  and  CB_33
REMARK   16  A    between atoms: CB_33  and  CG_34
REMARK   17  A    between atoms: CG_34  and  CD1_35
REMARK   18  A    between atoms: CG_34  and  CD2_36
REMARK   19  A    between atoms: N_37  and  CA_38
REMARK   20  A    between atoms: CA_38  and  C_39
REMARK   21  A    between atoms: CA_38  and  CB_41
REMARK   22  A    between atoms: CB_41  and  CG_42
REMARK   23  A    between atoms: CG_42  and  CD_43
REMARK   24  A    between atoms: N_46  and  CA_47
REMARK   25  A    between atoms: CA_47  and  C_48
REMARK   26  A    between atoms: CA_47  and  CB_50
REMARK   27  A    between atoms: CB_50  and  CG_51
REMARK   28  A    between atoms: N_54  and  CA_55
REMARK   29  A    between atoms: CA_55  and  C_56
REMARK   30  A    between atoms: CA_55  and  CB_58
REMARK   31  A    between atoms: CB_58  and  CG_59
REMARK   32  A    between atoms: N_65  and  CA_66
REMARK   33  A    between atoms: CA_66  and  C_67
REMARK   34  A    between atoms: CA_66  and  CB_69
REMARK   35  A    between atoms: CB_69  and  CG_70
REMARK   36  A    between atoms: CG_70  and  CD_71
REMARK   37  A    between atoms: N_74  and  CA_75
REMARK   38  A    between atoms: CA_75  and  C_76
REMARK   39  A    between atoms: CA_75  and  CB_78
REMARK   40  A    between atoms: CB_78  and  CG1_79
REMARK   41  A    between atoms: CB_78  and  CG2_80
REMARK   42  A    between atoms: CG1_79  and  CD1_81
REMARK   43  A    between atoms: N_82  and  CA_83
REMARK   44  A    between atoms: CA_83  and  C_84
REMARK   45  A    between atoms: N_86  and  CA_87
REMARK   46  A    between atoms: CA_87  and  C_88
REMARK   47  A    between atoms: CA_87  and  CB_90
REMARK   48  A    between atoms: CB_90  and  CG_91
REMARK   49  A    between atoms: CG_91  and  CD_92
REMARK   50  A    between atoms: CD_92  and  NE_93
REMARK   51  A    between atoms: CA_98  and  C_99
REMARK   52  A    between atoms: N_104  and  CA_105
REMARK   53  A    between atoms: CA_105  and  C_106
REMARK   54  A    between atoms: CA_105  and  CB_108
REMARK   55  A    between atoms: CB_108  and  CG_109
REMARK   56  A    between atoms: CG_109  and  CD1_110
REMARK   57  A    between atoms: CG_109  and  CD2_111
REMARK   58  A    between atoms: N_112  and  CA_113
REMARK   59  A    between atoms: CA_113  and  C_114
REMARK   60  A    between atoms: N_116  and  C_117
REMARK   61  A    between atoms: C_117  and  C_118
REMARK   62  A    between atoms: C_117  and  C_120
REMARK   63  A    between atoms: C_120  and  C_121
REMARK   64  A    between atoms: C_121  and  C_122
REMARK   65  A    between atoms: N_123  and  CA_124
REMARK   66  A    between atoms: CA_124  and  C_125
REMARK   67  A    between atoms: N_127  and  CA_128
REMARK   68  A    between atoms: CA_128  and  C_129
REMARK   69  A    between atoms: CA_128  and  CB_131
REMARK   70  A    between atoms: CB_131  and  CG_132
REMARK   71  A    between atoms: CG_132  and  CD_133
REMARK   72  A    between atoms: CD_133  and  CE_134
REMARK   73  A    between atoms: CE_134  and  NZ_135
REMARK   74  A    between atoms: N_136  and  CA_137
REMARK   75  A    between atoms: CA_137  and  C_138
REMARK   76  A    between atoms: CA_137  and  CB_140
REMARK   77  A    between atoms: CB_140  and  CG_141
REMARK   78  A    between atoms: N_147  and  CA_148
REMARK   79  A    between atoms: CA_148  and  C_149
REMARK   80  A    between atoms: N_151  and  CA_152
REMARK   81  A    between atoms: CA_152  and  C_153
REMARK   82  A    between atoms: CA_152  and  CB_155
REMARK   83  A    between atoms: CB_155  and  CG_156
REMARK   84  A    between atoms: N_159  and  CA_160
REMARK   85  A    between atoms: CA_160  and  C_161
REMARK   86  A    between atoms: CA_160  and  CB_163
REMARK   87  A    between atoms: CB_163  and  CG1_164
REMARK   88  A    between atoms: CB_163  and  CG2_165
REMARK   89  A    between atoms: N_166  and  CA_167
REMARK   90  A    between atoms: CA_167  and  C_168
REMARK   91  A    between atoms: CA_167  and  CB_170
REMARK   92  A    between atoms: CB_170  and  CG_171
REMARK   93  A    between atoms: CZ_176  and  OH_177
REMARK   94  A    between atoms: N_178  and  CA_179
REMARK   95  A    between atoms: CA_179  and  C_180
REMARK   96  A    between atoms: CA_179  and  CB_182
REMARK   97  A    between atoms: CB_182  and  CG_183
REMARK   98  A    between atoms: CG_183  and  CD1_184
REMARK   99  A    between atoms: CG_183  and  CD2_185
REMARK  100  A    between atoms: N_186  and  CA_187
REMARK  101  A    between atoms: CA_187  and  C_188
REMARK  102  A    between atoms: CA_187  and  CB_190
REMARK  103  A    between atoms: N_191  and  CA_192
REMARK  104  A    between atoms: CA_192  and  C_193
REMARK  105  A    between atoms: CA_192  and  CB_195
REMARK  106  A    between atoms: CB_195  and  CG_196
REMARK  107  A    between atoms: CG_196  and  CD_197
REMARK  108  A    between atoms: CD_197  and  NE_198
REMARK  109  A    between atoms: N_202  and  CA_203
REMARK  110  A    between atoms: CA_203  and  C_204
REMARK  111  A    between atoms: CA_203  and  CB_206
REMARK  112  A    between atoms: CB_206  and  CG_207
REMARK  113  A    between atoms: CG_207  and  CD_208
REMARK  114  A    between atoms: N_211  and  CA_212
REMARK  115  A    between atoms: CA_212  and  C_213
REMARK  116  A    between atoms: CA_212  and  CB_215
REMARK  117  A    between atoms: CB_215  and  CG_216
REMARK  118  A    between atoms: CG_216  and  CD_217
REMARK  119  A    between atoms: CD_217  and  CE_218
REMARK  120  A    between atoms: CE_218  and  NZ_219
REMARK  121  A    between atoms: N_220  and  CA_221
REMARK  122  A    between atoms: CA_221  and  C_222
REMARK  123  A    between atoms: CA_221  and  CB_224
REMARK  124  A    between atoms: N_225  and  CA_226
REMARK  125  A    between atoms: CA_226  and  C_227
REMARK  126  A    between atoms: CA_226  and  CB_229
REMARK  127  A    between atoms: CB_229  and  OG_230
REMARK  128  A    between atoms: N_231  and  CA_232
REMARK  129  A    between atoms: CA_232  and  C_233
REMARK  130  A    between atoms: CA_232  and  CB_235
REMARK  131  A    between atoms: CB_235  and  CG_236
REMARK  132  A    between atoms: CG_236  and  CD_237
REMARK  133  A    between atoms: CD_237  and  CE_238
REMARK  134  A    between atoms: CE_238  and  NZ_239
REMARK  135  A    between atoms: N_240  and  CA_241
REMARK  136  A    between atoms: CA_241  and  C_242
REMARK  137  A    between atoms: CA_241  and  CB_244
REMARK  138  A    between atoms: CB_244  and  CG_245
REMARK  139  A    between atoms: N_251  and  CA_252
REMARK  140  A    between atoms: CA_252  and  C_253
REMARK  141  A    between atoms: CA_252  and  CB_255
REMARK  142  A    between atoms: CB_255  and  CG1_256
REMARK  143  A    between atoms: CB_255  and  CG2_257
REMARK  144  A    between atoms: CG1_256  and  CD1_258
REMARK  145  A    between atoms: N_259  and  CA_260
REMARK  146  A    between atoms: CA_260  and  C_261
REMARK  147  A    between atoms: CA_260  and  CB_263
REMARK  148  A    between atoms: CB_263  and  CG_264
REMARK  149  A    between atoms: CG_264  and  CD1_265
REMARK  150  A    between atoms: CG_264  and  CD2_266
REMARK  151  A    between atoms: N_267  and  CA_268
REMARK  152  A    between atoms: CA_268  and  C_269
REMARK  153  A    between atoms: CA_268  and  CB_271
REMARK  154  A    between atoms: N_272  and  CA_273
REMARK  155  A    between atoms: CA_273  and  C_274
REMARK  156  A    between atoms: CA_273  and  CB_276
REMARK  157  A    between atoms: CB_276  and  CG_277
REMARK  158  A    between atoms: CG_277  and  CD2_278
REMARK  159  A    between atoms: CG_277  and  CD1_279
REMARK  160  A    between atoms: N_280  and  CA_281
REMARK  161  A    between atoms: CA_281  and  C_282
REMARK  162  A    between atoms: CA_281  and  CB_284
REMARK  163  A    between atoms: CB_284  and  CG_285
REMARK  164  A    between atoms: CG_285  and  CD_286
REMARK  165  A    between atoms: CD_286  and  CE_287
REMARK  166  A    between atoms: CE_287  and  NZ_288
REMARK  167  A    between atoms: N_289  and  CA_290
REMARK  168  A    between atoms: CA_290  and  C_291
REMARK  169  A    between atoms: CA_290  and  CB_293
REMARK  170  A    between atoms: CB_293  and  CG2_294
REMARK  171  A    between atoms: CB_293  and  CG1_295
REMARK  172  A    between atoms: N_296  and  CA_297
REMARK  173  A    between atoms: CA_297  and  C_298
REMARK  174  A    between atoms: CA_297  and  CB_300
REMARK  175  A    between atoms: CB_300  and  CG_301
REMARK  176  A    between atoms: CG_301  and  CD1_302
REMARK  177  A    between atoms: CG_301  and  CD2_303
REMARK  178  A    between atoms: N_304  and  CA_305
REMARK  179  A    between atoms: CA_305  and  C_306
REMARK  180  A    between atoms: CA_305  and  CB_308
REMARK  181  A    between atoms: CB_308  and  CG_309
REMARK  182  A    between atoms: N_315  and  CA_316
REMARK  183  A    between atoms: CA_316  and  C_317
REMARK  184  A    between atoms: CA_316  and  CB_319
REMARK  185  A    between atoms: CB_319  and  CG_320
REMARK  186  A    between atoms: CG_320  and  CD_321
REMARK  187  A    between atoms: CD_321  and  CE_322
REMARK  188  A    between atoms: CE_322  and  NZ_323
REMARK  189  A    between atoms: N_324  and  CA_325
REMARK  190  A    between atoms: CA_325  and  C_326
REMARK  191  A    between atoms: CA_325  and  CB_328
REMARK  192  A    between atoms: N_329  and  CA_330
REMARK  193  A    between atoms: CA_330  and  C_331
REMARK  194  A    between atoms: CA_330  and  CB_333
REMARK  195  A    between atoms: CB_333  and  CG_334
REMARK  196  A    between atoms: CG_334  and  CD_335
REMARK  197  A    between atoms: N_338  and  CA_339
REMARK  198  A    between atoms: CA_339  and  C_340
REMARK  199  A    between atoms: CA_339  and  CB_342
REMARK  200  A    between atoms: CB_342  and  CG_343
REMARK  201  A    between atoms: CG_343  and  CD1_344
REMARK  202  A    between atoms: CG_343  and  CD2_345
REMARK  203  A    between atoms: N_346  and  CA_347
REMARK  204  A    between atoms: CA_347  and  C_348
REMARK  205  A    between atoms: CA_347  and  CB_350
REMARK  206  A    between atoms: CB_350  and  CG_351
REMARK  207  A    between atoms: CG_351  and  CD_352
REMARK  208  A    between atoms: N_355  and  C_356
REMARK  209  A    between atoms: C_356  and  C_357
REMARK  210  A    between atoms: C_356  and  C_359
REMARK  211  A    between atoms: C_359  and  C_360
REMARK  212  A    between atoms: N_361  and  CA_362
REMARK  213  A    between atoms: CA_362  and  C_363
REMARK  214  A    between atoms: CA_362  and  CB_365
REMARK  215  A    between atoms: N_366  and  CA_367
REMARK  216  A    between atoms: CA_367  and  C_368
REMARK  217  A    between atoms: N_370  and  CA_371
REMARK  218  A    between atoms: CA_371  and  C_372
REMARK  219  A    between atoms: CA_371  and  CB_374
REMARK  220  A    between atoms: CB_374  and  CG2_375
REMARK  221  A    between atoms: CB_374  and  CG1_376
REMARK  222  A    between atoms: N_377  and  CA_378
REMARK  223  A    between atoms: CA_378  and  C_379
REMARK  224  A    between atoms: CA_378  and  CB_381
REMARK  225  A    between atoms: CB_381  and  CG_382
REMARK  226  A    between atoms: CG_382  and  CD_383
REMARK  227  A    between atoms: N_386  and  CA_387
REMARK  228  A    between atoms: CA_387  and  C_388
REMARK  229  A    between atoms: CA_387  and  CB_390
REMARK  230  A    between atoms: CB_390  and  CG_391
REMARK  231  A    between atoms: N_396  and  CA_397
REMARK  232  A    between atoms: CA_397  and  C_398
REMARK  233  A    between atoms: CA_397  and  CB_400
REMARK  234  A    between atoms: CB_400  and  CG_401
REMARK  235  A    between atoms: CG_401  and  CD_402
REMARK  236  A    between atoms: N_405  and  CA_406
REMARK  237  A    between atoms: CA_406  and  C_407
REMARK  238  A    between atoms: CA_406  and  CB_409
REMARK  239  A    between atoms: CB_409  and  CG_410
REMARK  240  A    between atoms: CG_410  and  CD2_411
REMARK  241  A    between atoms: CG_410  and  CD1_412
REMARK  242  A    between atoms: N_413  and  CA_414
REMARK  243  A    between atoms: CA_414  and  C_415
REMARK  244  A    between atoms: CA_414  and  CB_417
REMARK  245  A    between atoms: CB_417  and  CG_418
REMARK  246  A    between atoms: CG_418  and  CD_419
REMARK  247  A    between atoms: CD_419  and  NE_420
REMARK  248  A    between atoms: N_424  and  CA_425
REMARK  249  A    between atoms: CA_425  and  C_426
REMARK  250  A    between atoms: CA_425  and  CB_428
REMARK  251  A    between atoms: CB_428  and  CG_429
REMARK  252  A    between atoms: CG_429  and  CD_430
REMARK  253  A    between atoms: CD_430  and  NE_431
REMARK  254  A    between atoms: N_435  and  CA_436
REMARK  255  A    between atoms: CA_436  and  C_437
REMARK  256  A    between atoms: CA_436  and  CB_439
REMARK  257  A    between atoms: CB_439  and  CG_440
REMARK  258  A    between atoms: CG_440  and  CD_441
REMARK  259  A    between atoms: N_444  and  CA_445
REMARK  260  A    between atoms: CA_445  and  C_446
REMARK  261  A    between atoms: CA_445  and  CB_448
REMARK  262  A    between atoms: CB_448  and  CG1_449
REMARK  263  A    between atoms: CB_448  and  CG2_450
REMARK  264  A    between atoms: N_451  and  C_452
REMARK  265  A    between atoms: C_452  and  C_453
REMARK  266  A    between atoms: C_452  and  C_455
REMARK  267  A    between atoms: C_455  and  C_456
REMARK  268  A    between atoms: N_457  and  CA_458
REMARK  269  A    between atoms: CA_458  and  C_459
REMARK  270  A    between atoms: CA_458  and  CB_461
REMARK  271  A    between atoms: CB_461  and  CG1_462
REMARK  272  A    between atoms: CB_461  and  CG2_463
REMARK  273  A    between atoms: CG1_462  and  CD1_464
REMARK  274  A    between atoms: N_465  and  CA_466
REMARK  275  A    between atoms: CA_466  and  C_467
REMARK  276  A    between atoms: CA_466  and  CB_469
REMARK  277  A    between atoms: CB_469  and  CG_470
REMARK  278  A    between atoms: CG_470  and  CD_471
REMARK  279  A    between atoms: N_474  and  C_475
REMARK  280  A    between atoms: C_475  and  C_476
REMARK  281  A    between atoms: C_475  and  C_478
REMARK  282  A    between atoms: C_478  and  O_479
REMARK  283  A    between atoms: N_480  and  C_481
REMARK  284  A    between atoms: C_481  and  C_482
REMARK  285  A    between atoms: C_481  and  C_484
REMARK  286  A    between atoms: C_484  and  C_485
REMARK  287  A    between atoms: N_490  and  C_491
REMARK  288  A    between atoms: C_491  and  C_492
REMARK  289  A    between atoms: C_491  and  C_494
REMARK  290  A    between atoms: C_494  and  C_495
REMARK  291  A    between atoms: C_495  and  C_496
REMARK  292  A    between atoms: C_495  and  C_497
REMARK  293  A    between atoms: N_498  and  C_499
REMARK  294  A    between atoms: C_499  and  C_500
REMARK  295  A    between atoms: C_499  and  C_502
REMARK  296  A    between atoms: C_502  and  C_503
REMARK  297  A    between atoms: C_503  and  C_504
REMARK  298  A    between atoms: C_504  and  N_505
REMARK  299  A    between atoms: N_509  and  C_510
REMARK  300  A    between atoms: C_510  and  C_511
REMARK  301  A    between atoms: C_510  and  C_513
REMARK  302  A    between atoms: C_513  and  C_514
REMARK  303  A    between atoms: C_520  and  C_521
REMARK  304  A    between atoms: N_526  and  C_527
REMARK  305  A    between atoms: C_527  and  C_528
REMARK  306  A    between atoms: C_527  and  C_530
REMARK  307  A    between atoms: C_530  and  C_531
REMARK  308  A    between atoms: N_534  and  C_535
REMARK  309  A    between atoms: C_535  and  C_536
REMARK  310  A    between atoms: C_535  and  C_538
REMARK  311  A    between atoms: C_538  and  C_539
REMARK  312  A    between atoms: C_538  and  C_540
REMARK  313  A    between atoms: C_539  and  C_541
REMARK  314  A    between atoms: N_542  and  C_543
REMARK  315  A    between atoms: C_543  and  C_544
REMARK  316  A    between atoms: C_543  and  C_546
REMARK  317  A    between atoms: C_546  and  C_547
REMARK  318  A    between atoms: C_547  and  C_548
REMARK  319  A    between atoms: C_547  and  C_549
REMARK  320  A    between atoms: N_550  and  C_551
REMARK  321  A    between atoms: C_551  and  C_552
REMARK  322  A    between atoms: C_551  and  C_554
REMARK  323  A    between atoms: C_554  and  C_555
REMARK  324  A    between atoms: C_555  and  C_556
REMARK  325  A    between atoms: C_556  and  N_557
REMARK  326  A    between atoms: N_561  and  C_562
REMARK  327  A    between atoms: C_562  and  C_567
REMARK  328  A    between atoms: C_563  and  C_564
REMARK  329  A    between atoms: C_568  and  C_569
REMARK  330  A    between atoms: C_568  and  C_571
REMARK  331  A    between atoms: C_569  and  C_572
REMARK  332  A    between atoms: C_569  and  C_573
REMARK  333  A    between atoms: C_570  and  C_573
REMARK  334  A    between atoms: N_574  and  CA_575
REMARK  335  A    between atoms: CA_575  and  C_576
REMARK  336  A    between atoms: CA_575  and  CB_578
REMARK  337  A    between atoms: CB_578  and  CG_579
REMARK  338  A    between atoms: CZ_584  and  OH_585
REMARK  339  A    between atoms: N_586  and  CA_587
REMARK  340  A    between atoms: CA_587  and  C_588
REMARK  341  A    between atoms: N_590  and  CA_591
REMARK  342  A    between atoms: CA_591  and  C_592
REMARK  343  A    between atoms: CA_591  and  CB_594
REMARK  344  A    between atoms: CB_594  and  CG_595
REMARK  345  A    between atoms: CZ_600  and  OH_601
REMARK  346  A    between atoms: N_602  and  CA_603
REMARK  347  A    between atoms: CA_603  and  C_604
REMARK  348  A    between atoms: CA_603  and  CB_606
REMARK  349  A    between atoms: CB_606  and  CG_607
REMARK  350  A    between atoms: N_613  and  CA_614
REMARK  351  A    between atoms: CA_614  and  C_615
REMARK  352  A    between atoms: CA_614  and  CB_617
REMARK  353  A    between atoms: CB_617  and  CG_618
REMARK  354  A    between atoms: N_623  and  CA_624
REMARK  355  A    between atoms: CA_624  and  C_625
REMARK  356  A    between atoms: CA_624  and  CB_627
REMARK  357  A    between atoms: CB_627  and  CG_628
REMARK  358  A    between atoms: N_631  and  CA_632
REMARK  359  A    between atoms: CA_632  and  C_633
REMARK  360  A    between atoms: CA_632  and  CB_635
REMARK  361  A    between atoms: N_636  and  CA_637
REMARK  362  A    between atoms: CA_637  and  C_638
REMARK  363  A    between atoms: CA_637  and  CB_640
REMARK  364  A    between atoms: CB_640  and  OG1_641
REMARK  365  A    between atoms: CB_640  and  CG2_642
REMARK  366  A    between atoms: N_643  and  CA_644
REMARK  367  A    between atoms: CA_644  and  C_645
REMARK  368  A    between atoms: CA_644  and  CB_647
REMARK  369  A    between atoms: CB_647  and  CG_648
REMARK  370  A    between atoms: CG_648  and  CD_649
REMARK  371  A    between atoms: CD_649  and  NE_650
REMARK  372  A    between atoms: N_654  and  CA_655
REMARK  373  A    between atoms: CA_655  and  C_656
REMARK  374  A    between atoms: CA_655  and  CB_658
REMARK  375  A    between atoms: CB_658  and  CG1_659
REMARK  376  A    between atoms: CB_658  and  CG2_660
REMARK  377  A    between atoms: N_661  and  CA_662
REMARK  378  A    between atoms: CA_662  and  C_663
REMARK  379  A    between atoms: CA_662  and  CB_665
REMARK  380  A    between atoms: CB_665  and  CG_666
REMARK  381  A    between atoms: CZ_671  and  OH_672
REMARK  382  A    between atoms: N_673  and  CA_674
REMARK  383  A    between atoms: CA_674  and  C_675
REMARK  384  A    between atoms: CA_674  and  CB_677
REMARK  385  A    between atoms: CB_677  and  CG_678
REMARK  386  A    between atoms: CG_678  and  CD2_679
REMARK  387  A    between atoms: CG_678  and  CD1_680
REMARK  388  A    between atoms: N_681  and  CA_682
REMARK  389  A    between atoms: CA_682  and  C_683
REMARK  390  A    between atoms: CA_682  and  CB_685
REMARK  391  A    between atoms: CB_685  and  CG1_686
REMARK  392  A    between atoms: CB_685  and  CG2_687
REMARK  393  A    between atoms: CG1_686  and  CD1_688
REMARK  394  A    between atoms: N_689  and  CA_690
REMARK  395  A    between atoms: CA_690  and  C_691
REMARK  396  A    between atoms: CA_690  and  CB_693
REMARK  397  A    between atoms: CB_693  and  CG_694
REMARK  398  A    between atoms: CG_694  and  CD2_695
REMARK  399  A    between atoms: CG_694  and  CD1_696
REMARK  400  A    between atoms: N_697  and  CA_698
REMARK  401  A    between atoms: CA_698  and  C_699
REMARK  402  A    between atoms: CA_698  and  CB_701
REMARK  403  A    between atoms: CB_701  and  CG_702
REMARK  404  A    between atoms: CG_702  and  CD_703
REMARK  405  A    between atoms: N_706  and  CA_707
REMARK  406  A    between atoms: CA_707  and  C_708
REMARK  407  A    between atoms: CA_707  and  CB_710
REMARK  408  A    between atoms: CB_710  and  CG_711
REMARK  409  A    between atoms: CZ_716  and  OH_717
REMARK  410  A    between atoms: N_718  and  CA_719
REMARK  411  A    between atoms: CA_719  and  C_720
REMARK  412  A    between atoms: CA_719  and  CB_722
REMARK  413  A    between atoms: CA_724  and  C_725
REMARK  414  A    between atoms: N_730  and  CA_731
REMARK  415  A    between atoms: CA_731  and  C_732
REMARK  416  A    between atoms: CA_731  and  CB_734
REMARK  417  A    between atoms: CB_734  and  CG_735
REMARK  418  A    between atoms: CG_735  and  CD1_736
REMARK  419  A    between atoms: CG_735  and  CD2_737
REMARK  420  A    between atoms: N_738  and  CA_739
REMARK  421  A    between atoms: CA_739  and  C_740
REMARK  422  A    between atoms: N_742  and  CA_743
REMARK  423  A    between atoms: CA_743  and  C_744
REMARK  424  A    between atoms: CA_743  and  CB_746
REMARK  425  A    between atoms: CB_746  and  OG1_747
REMARK  426  A    between atoms: CB_746  and  CG2_748
REMARK  427  A    between atoms: N_749  and  CA_750
REMARK  428  A    between atoms: CA_750  and  C_751
REMARK  429  A    between atoms: CA_750  and  CB_753
REMARK  430  A    between atoms: CB_753  and  CG2_754
REMARK  431  A    between atoms: CB_753  and  CG1_755
REMARK  432  A    between atoms: N_756  and  CA_757
REMARK  433  A    between atoms: CA_757  and  C_758
REMARK  434  A    between atoms: CA_757  and  CB_760
REMARK  435  A    between atoms: CB_760  and  CG_761
REMARK  436  A    between atoms: CZ_766  and  OH_767
REMARK  437  A    between atoms: N_768  and  C_769
REMARK  438  A    between atoms: C_769  and  C_770
REMARK  439  A    between atoms: C_769  and  C_772
REMARK  440  A    between atoms: C_772  and  C_773
REMARK  441  A    between atoms: N_774  and  CA_775
REMARK  442  A    between atoms: CA_775  and  C_776
REMARK  443  A    between atoms: CA_775  and  CB_778
REMARK  444  A    between atoms: CB_778  and  CG_779
REMARK  445  A    between atoms: CG_779  and  CD_780
REMARK  446  A    between atoms: N_783  and  CA_784
REMARK  447  A    between atoms: CA_784  and  C_785
REMARK  448  A    between atoms: CA_784  and  CB_787
REMARK  449  A    between atoms: CB_787  and  CG_788
REMARK  450  A    between atoms: CG_788  and  CD2_789
REMARK  451  A    between atoms: CG_788  and  CD1_790
REMARK  452  A    between atoms: N_791  and  CA_792
REMARK  453  A    between atoms: CA_792  and  C_793
REMARK  454  A    between atoms: CA_792  and  CB_795
REMARK  455  A    between atoms: CB_795  and  CG_796
REMARK  456  A    between atoms: CG_796  and  CD_797
REMARK  457  A    between atoms: N_800  and  CA_801
REMARK  458  A    between atoms: CA_801  and  C_802
REMARK  459  A    between atoms: CA_801  and  CB_804
REMARK  460  A    between atoms: CB_804  and  CG_805
REMARK  461  A    between atoms: CG_805  and  CD_806
REMARK  462  A    between atoms: CD_806  and  CE_807
REMARK  463  A    between atoms: CE_807  and  NZ_808
REMARK  464  A    between atoms: N_809  and  CA_810
REMARK  465  A    between atoms: CA_810  and  C_811
REMARK  466  A    between atoms: CA_810  and  CB_813
REMARK  467  A    between atoms: CB_813  and  CG_814
REMARK  468  A    between atoms: CG_814  and  CD1_815
REMARK  469  A    between atoms: CG_814  and  CD2_816
REMARK  470  A    between atoms: N_817  and  CA_818
REMARK  471  A    between atoms: CA_818  and  C_819
REMARK  472  A    between atoms: CA_818  and  CB_821
REMARK  473  A    between atoms: CB_821  and  OG_822
REMARK  474  A    between atoms: N_823  and  CA_824
REMARK  475  A    between atoms: CA_824  and  C_825
REMARK  476  A    between atoms: CA_824  and  CB_827
REMARK  477  A    between atoms: CB_827  and  CG_828
REMARK  478  A    between atoms: CG_828  and  CD_829
REMARK  479  A    between atoms: CD_829  and  CE_830
REMARK  480  A    between atoms: CE_830  and  NZ_831
REMARK  481  A    between atoms: N_832  and  CA_833
REMARK  482  A    between atoms: CA_833  and  C_834
REMARK  483  A    between atoms: CA_833  and  CB_836
REMARK  484  A    between atoms: CB_836  and  CG_837
REMARK  485  A    between atoms: N_843  and  CA_844
REMARK  486  A    between atoms: CA_844  and  C_845
REMARK  487  A    between atoms: CA_844  and  CB_847
REMARK  488  A    between atoms: CB_847  and  CG_848
REMARK  489  A    between atoms: N_851  and  CA_852
REMARK  490  A    between atoms: CA_852  and  C_853
REMARK  491  A    between atoms: CA_852  and  CB_855
REMARK  492  A    between atoms: CB_855  and  CG_856
REMARK  493  A    between atoms: CG_856  and  CD_857
REMARK  494  A    between atoms: N_860  and  CA_861
REMARK  495  A    between atoms: CA_861  and  C_862
REMARK  496  A    between atoms: CA_861  and  CB_864
REMARK  497  A    between atoms: CB_864  and  CG_865
REMARK  498  A    between atoms: CG_865  and  CD_866
REMARK  499  A    between atoms: N_869  and  CA_870
REMARK  500  A    between atoms: CA_870  and  C_871
REMARK  501  A    between atoms: CA_870  and  CB_873
REMARK  502  A    between atoms: CB_873  and  CG_874
REMARK  503  A    between atoms: CG_874  and  CD_875
REMARK  504  A    between atoms: CD_875  and  NE_876
REMARK  505  A    between atoms: N_880  and  CA_881
REMARK  506  A    between atoms: CA_881  and  C_882
REMARK  507  A    between atoms: CA_881  and  CB_884
REMARK  508  A    between atoms: CB_884  and  OG1_885
REMARK  509  A    between atoms: CB_884  and  CG2_886
REMARK  510  A    between atoms: N_887  and  CA_888
REMARK  511  A    between atoms: CA_888  and  C_889
REMARK  512  A    between atoms: CA_888  and  CB_891
REMARK  513  A    between atoms: N_892  and  CA_893
REMARK  514  A    between atoms: CA_893  and  C_894
REMARK  515  A    between atoms: CA_893  and  CB_896
REMARK  516  A    between atoms: CB_896  and  OG1_897
REMARK  517  A    between atoms: CB_896  and  CG2_898
REMARK  518  A    between atoms: N_899  and  CA_900
REMARK  519  A    between atoms: CA_900  and  C_901
REMARK  520  A    between atoms: CA_900  and  CB_903
REMARK  521  A    between atoms: CB_903  and  CG_904
REMARK  522  A    between atoms: CZ_909  and  OH_910
REMARK  523  A    between atoms: N_911  and  CA_912
REMARK  524  A    between atoms: CA_912  and  C_913
REMARK  525  A    between atoms: CA_912  and  CB_915
REMARK  526  A    between atoms: CB_915  and  CG1_916
REMARK  527  A    between atoms: CB_915  and  CG2_917
REMARK  528  A    between atoms: CG1_916  and  CD1_918
REMARK  529  A    between atoms: N_919  and  CA_920
REMARK  530  A    between atoms: CA_920  and  C_921
REMARK  531  A    between atoms: CA_920  and  CB_923
REMARK  532  A    between atoms: CB_923  and  OG1_924
REMARK  533  A    between atoms: CB_923  and  CG2_925
REMARK  534  A    between atoms: N_926  and  CA_927
REMARK  535  A    between atoms: CA_927  and  C_928
REMARK  536  A    between atoms: CA_927  and  CB_930
REMARK  537  A    between atoms: CB_930  and  CG_931
REMARK  538  A    between atoms: CG_931  and  CD_932
REMARK  539  A    between atoms: N_935  and  CA_936
REMARK  540  A    between atoms: CA_936  and  C_937
REMARK  541  A    between atoms: CA_936  and  CB_939
REMARK  542  A    between atoms: CB_939  and  CG_940
REMARK  543  A    between atoms: CG_940  and  CD2_941
REMARK  544  A    between atoms: CG_940  and  CD1_942
REMARK  545  A    between atoms: N_943  and  CA_944
REMARK  546  A    between atoms: CA_944  and  C_945
REMARK  547  A    between atoms: CA_944  and  CB_947
REMARK  548  A    between atoms: N_948  and  CA_949
REMARK  549  A    between atoms: CA_949  and  C_950
REMARK  550  A    between atoms: CA_949  and  CB_952
REMARK  551  A    between atoms: CB_952  and  CG_953
REMARK  552  A    between atoms: N_956  and  CA_957
REMARK  553  A    between atoms: CA_957  and  C_958
REMARK  554  A    between atoms: CA_957  and  CB_960
REMARK  555  A    between atoms: N_961  and  CA_962
REMARK  556  A    between atoms: CA_962  and  C_963
REMARK  557  A    between atoms: CA_962  and  CB_965
REMARK  558  A    between atoms: CB_965  and  CG_966
REMARK  559  A    between atoms: CG_966  and  CD2_967
REMARK  560  A    between atoms: CG_966  and  CD1_968
REMARK  561  A    between atoms: N_969  and  CA_970
REMARK  562  A    between atoms: CA_970  and  C_971
REMARK  563  A    between atoms: CA_970  and  CB_973
REMARK  564  A    between atoms: CB_973  and  OG_974
REMARK  565  A    between atoms: N_975  and  CA_976
REMARK  566  A    between atoms: CA_976  and  C_977
REMARK  567  A    between atoms: CA_976  and  CB_979
REMARK  568  A    between atoms: CB_979  and  CG_980
REMARK  569  A    between atoms: CZ_985  and  OH_986
REMARK  570  A    between atoms: N_987  and  CA_988
REMARK  571  A    between atoms: CA_988  and  C_989
REMARK  572  A    between atoms: CA_988  and  CB_991
REMARK  573  A    between atoms: CB_991  and  SG_992
REMARK  574  A    between atoms: N_993  and  CA_994
REMARK  575  A    between atoms: CA_994  and  C_995
REMARK  576  A    between atoms: CA_994  and  CB_997
REMARK  577  A    between atoms: CB_997  and  CG_998
REMARK  578  A    between atoms: N_1003  and  C_1004
REMARK  579  A    between atoms: C_1004  and  C_1005
REMARK  580  A    between atoms: C_1004  and  C_1007
REMARK  581  A    between atoms: C_1007  and  O_1008
REMARK  582  A    between atoms: N_1009  and  C_1010
REMARK  583  A    between atoms: C_1010  and  C_1011
REMARK  584  A    between atoms: C_1010  and  C_1013
REMARK  585  A    between atoms: C_1013  and  C_1014
REMARK  586  A    between atoms: C_1014  and  C_1015
REMARK  587  A    between atoms: C_1015  and  C_1016
REMARK  588  A    between atoms: C_1016  and  N_1017
REMARK  589  A    between atoms: N_1018  and  C_1019
REMARK  590  A    between atoms: C_1020  and  C_1021
REMARK  591  A    between atoms: C_1020  and  C_1024
REMARK  592  A    between atoms: C_1023  and  C_1026
REMARK  593  A    between atoms: C_1025  and  C_1026
REMARK  594  A    between atoms: C_1027  and  N_1029
REMARK  595  A    between atoms: C_1028  and  N_1030
REMARK  596  A    between atoms: N_1037  and  C_1038
REMARK  597  A    between atoms: C_1038  and  C_1039
REMARK  598  A    between atoms: C_1038  and  C_1041
REMARK  599  A    between atoms: C_1041  and  C_1042
REMARK  600  A    between atoms: C_1041  and  C_1043
REMARK  601  A    between atoms: N_1044  and  C_1045
REMARK  602  A    between atoms: C_1045  and  C_1046
REMARK  603  A    between atoms: C_1045  and  C_1048
REMARK  604  A    between atoms: C_1048  and  C_1049
REMARK  605  A    between atoms: C_1048  and  C_1050
REMARK  606  A    between atoms: C_1049  and  C_1051
REMARK  607  A    between atoms: N_1052  and  C_1053
REMARK  608  A    between atoms: C_1053  and  C_1054
REMARK  609  A    between atoms: C_1053  and  C_1056
REMARK  610  A    between atoms: C_1056  and  C_1057
REMARK  611  A    between atoms: N_1062  and  C_1063
REMARK  612  A    between atoms: C_1063  and  C_1064
REMARK  613  A    between atoms: C_1063  and  C_1066
REMARK  614  A    between atoms: C_1066  and  C_1067
REMARK  615  A    between atoms: C_1067  and  C_1068
REMARK  616  A    between atoms: C_1068  and  N_1069
REMARK  617  A    between atoms: N_1073  and  C_1074
REMARK  618  A    between atoms: C_1074  and  C_1077
REMARK  619  A    between atoms: C_1077  and  C_1078
REMARK  620  A    between atoms: N_1081  and  C_1084
REMARK  621  A    between atoms: C_1083  and  C_1085
REMARK  622  A    between atoms: C_1085  and  C_1086
REMARK  623  A    between atoms: C_1085  and  O_1087
REMARK  624  A    between atoms: C_1085  and  N_1097
REMARK  625  A    between atoms: C_1089  and  C_1094
REMARK  626  A    between atoms: C_1090  and  C_1091
REMARK  627  A    between atoms: C_1093  and  C_1094
REMARK  628  A    between atoms: C_1098  and  C_1099
REMARK  629  A    between atoms: C_1098  and  C_1101
REMARK  630  A    between atoms: C_1101  and  C_1102
REMARK  631  A    between atoms: C_1102  and  C_1103
REMARK  632  A    between atoms: C_1103  and  C_1104
REMARK  633  A    between atoms: C_1104  and  N_1105
REMARK  634  A    between atoms: C_1107  and  C_1108
REMARK  635  A    between atoms: N_1113  and  CA_1114
REMARK  636  A    between atoms: CA_1114  and  C_1115
REMARK  637  A    between atoms: CA_1114  and  CB_1117
REMARK  638  A    between atoms: CB_1117  and  CG_1118
REMARK  639  A    between atoms: CG_1118  and  CD_1119
REMARK  640  A    between atoms: N_1122  and  CA_1123
REMARK  641  A    between atoms: CA_1123  and  C_1124
REMARK  642  A    between atoms: CA_1123  and  CB_1126
REMARK  643  A    between atoms: CB_1126  and  CG_1127
REMARK  644  A    between atoms: N_1130  and  CA_1131
REMARK  645  A    between atoms: CA_1131  and  C_1132
REMARK  646  A    between atoms: CA_1131  and  CB_1134
REMARK  647  A    between atoms: CB_1134  and  CG_1135
REMARK  648  A    between atoms: CG_1135  and  CD2_1136
REMARK  649  A    between atoms: CG_1135  and  CD1_1137
REMARK  650  A    between atoms: N_1138  and  CA_1139
REMARK  651  A    between atoms: CA_1139  and  C_1140
REMARK  652  A    between atoms: CA_1139  and  CB_1142
REMARK  653  A    between atoms: CB_1142  and  CG_1143
REMARK  654  A    between atoms: CG_1143  and  CD1_1144
REMARK  655  A    between atoms: CG_1143  and  CD2_1145
REMARK  656  A    between atoms: N_1146  and  CA_1147
REMARK  657  A    between atoms: CA_1147  and  C_1148
REMARK  658  A    between atoms: CA_1147  and  CB_1150
REMARK  659  A    between atoms: CB_1150  and  CG_1151
REMARK  660  A    between atoms: CG_1151  and  CD2_1152
REMARK  661  A    between atoms: CG_1151  and  CD1_1153
REMARK  662  A    between atoms: N_1154  and  CA_1155
REMARK  663  A    between atoms: CA_1155  and  C_1156
REMARK  664  A    between atoms: N_1158  and  CA_1159
REMARK  665  A    between atoms: CA_1159  and  C_1160
REMARK  666  A    between atoms: CA_1159  and  CB_1162
REMARK  667  A    between atoms: CB_1162  and  OG_1163
REMARK  668  A    between atoms: N_1164  and  CA_1165
REMARK  669  A    between atoms: CA_1165  and  C_1166
REMARK  670  A    between atoms: CA_1165  and  CB_1168
REMARK  671  A    between atoms: N_1169  and  CA_1170
REMARK  672  A    between atoms: CA_1170  and  C_1171
REMARK  673  A    between atoms: N_1173  and  CA_1174
REMARK  674  A    between atoms: CA_1174  and  C_1175
REMARK  675  A    between atoms: CA_1174  and  CB_1177
REMARK  676  A    between atoms: CB_1177  and  CG_1178
REMARK  677  A    between atoms: CG_1178  and  CD_1179
REMARK  678  A    between atoms: N_1182  and  CA_1183
REMARK  679  A    between atoms: CA_1183  and  C_1184
REMARK  680  A    between atoms: CA_1183  and  CB_1186
REMARK  681  A    between atoms: CB_1186  and  CG_1187
REMARK  682  A    between atoms: CG_1187  and  CD2_1188
REMARK  683  A    between atoms: CG_1187  and  CD1_1189
REMARK  684  A    between atoms: N_1190  and  CA_1191
REMARK  685  A    between atoms: CA_1191  and  C_1192
REMARK  686  A    between atoms: CA_1191  and  CB_1194
REMARK  687  A    between atoms: CB_1194  and  CG_1195
REMARK  688  A    between atoms: CG_1195  and  CD_1196
REMARK  689  A    between atoms: CD_1196  and  CE_1197
REMARK  690  A    between atoms: CE_1197  and  NZ_1198
REMARK  691  A    between atoms: N_1199  and  CA_1200
REMARK  692  A    between atoms: CA_1200  and  C_1201
REMARK  693  A    between atoms: CA_1200  and  CB_1203
REMARK  694  A    between atoms: CB_1203  and  CG1_1204
REMARK  695  A    between atoms: CB_1203  and  CG2_1205
REMARK  696  A    between atoms: CG1_1204  and  CD1_1206
REMARK  697  A    between atoms: N_1207  and  CA_1208
REMARK  698  A    between atoms: CA_1208  and  C_1209
REMARK  699  A    between atoms: CA_1208  and  CB_1211
REMARK  700  A    between atoms: N_1212  and  CA_1213
REMARK  701  A    between atoms: CA_1213  and  C_1214
REMARK  702  A    between atoms: CA_1213  and  CB_1216
REMARK  703  A    between atoms: CB_1216  and  CG_1217
REMARK  704  A    between atoms: N_1220  and  CA_1221
REMARK  705  A    between atoms: CA_1221  and  C_1222
REMARK  706  A    between atoms: CA_1221  and  CB_1224
REMARK  707  A    between atoms: CB_1224  and  CG_1225
REMARK  708  A    between atoms: N_1231  and  CA_1232
REMARK  709  A    between atoms: CA_1232  and  C_1233
REMARK  710  A    between atoms: N_1235  and  CA_1236
REMARK  711  A    between atoms: CA_1236  and  C_1237
REMARK  712  A    between atoms: CA_1236  and  CB_1239
REMARK  713  A    between atoms: CB_1239  and  CG_1240
REMARK  714  A    between atoms: N_1249  and  CA_1250
REMARK  715  A    between atoms: CA_1250  and  C_1251
REMARK  716  A    between atoms: CA_1250  and  CB_1253
REMARK  717  A    between atoms: CB_1253  and  OG_1254
REMARK  718  A    between atoms: N_1255  and  CA_1256
REMARK  719  A    between atoms: CA_1256  and  C_1257
REMARK  720  A    between atoms: CA_1256  and  CB_1259
REMARK  721  A    between atoms: CB_1259  and  CG2_1260
REMARK  722  A    between atoms: CB_1259  and  CG1_1261
REMARK  723  A    between atoms: N_1262  and  CA_1263
REMARK  724  A    between atoms: CA_1263  and  C_1264
REMARK  725  A    between atoms: CA_1263  and  CB_1266
REMARK  726  A    between atoms: CB_1266  and  CG_1267
REMARK  727  A    between atoms: N_1272  and  CA_1273
REMARK  728  A    between atoms: CA_1273  and  C_1274
REMARK  729  A    between atoms: CA_1273  and  CB_1276
REMARK  730  A    between atoms: CA_1278  and  C_1279
REMARK  731  A    between atoms: N_1284  and  CA_1285
REMARK  732  A    between atoms: CA_1285  and  C_1286
REMARK  733  A    between atoms: CA_1285  and  CB_1288
REMARK  734  A    between atoms: CB_1288  and  OG_1289
REMARK  735  A    between atoms: N_1290  and  CA_1291
REMARK  736  A    between atoms: CA_1291  and  C_1292
REMARK  737  A    between atoms: CA_1291  and  CB_1294
REMARK  738  A    between atoms: CB_1294  and  OG_1295
REMARK  739  A    between atoms: N_1296  and  C_1297
REMARK  740  A    between atoms: C_1297  and  C_1298
REMARK  741  A    between atoms: C_1297  and  C_1300
REMARK  742  A    between atoms: C_1300  and  C_1301
REMARK  743  A    between atoms: C_1301  and  C_1302
REMARK  744  A    between atoms: N_1303  and  CA_1304
REMARK  745  A    between atoms: CA_1304  and  C_1305
REMARK  746  A    between atoms: CA_1304  and  CB_1307
REMARK  747  A    between atoms: CB_1307  and  CG_1308
REMARK  748  A    between atoms: CG_1308  and  CD_1309
REMARK  749  A    between atoms: CD_1309  and  NE_1310
REMARK  750  A    between atoms: N_1314  and  CA_1315
REMARK  751  A    between atoms: CA_1315  and  C_1316
REMARK  752  A    between atoms: CA_1315  and  CB_1318
REMARK  753  A    between atoms: CB_1318  and  OG1_1319
REMARK  754  A    between atoms: CB_1318  and  CG2_1320
REMARK  755  A    between atoms: N_1321  and  C_1322
REMARK  756  A    between atoms: C_1322  and  C_1323
REMARK  757  A    between atoms: C_1322  and  C_1325
REMARK  758  A    between atoms: C_1325  and  C_1326
REMARK  759  A    between atoms: C_1326  and  C_1327
REMARK  760  A    between atoms: C_1326  and  C_1328
REMARK  761  A    between atoms: N_1329  and  C_1330
REMARK  762  A    between atoms: C_1330  and  C_1331
REMARK  763  A    between atoms: C_1330  and  C_1333
REMARK  764  A    between atoms: N_1334  and  C_1335
REMARK  765  A    between atoms: C_1335  and  C_1336
REMARK  766  A    between atoms: N_1338  and  C_1339
REMARK  767  A    between atoms: C_1339  and  C_1340
REMARK  768  A    between atoms: C_1339  and  C_1342
REMARK  769  A    between atoms: C_1342  and  O_1343
REMARK  770  A    between atoms: C_1342  and  C_1344
REMARK  771  A    between atoms: N_1345  and  C_1346
REMARK  772  A    between atoms: C_1346  and  C_1347
REMARK  773  A    between atoms: C_1346  and  C_1349
REMARK  774  A    between atoms: C_1349  and  C_1350
REMARK  775  A    between atoms: C_1350  and  C_1351
REMARK  776  A    between atoms: C_1350  and  C_1352
REMARK  777  A    between atoms: N_1353  and  C_1354
REMARK  778  A    between atoms: C_1354  and  C_1355
REMARK  779  A    between atoms: C_1354  and  C_1357
REMARK  780  A    between atoms: C_1357  and  C_1358
REMARK  781  A    between atoms: N_1361  and  C_1362
REMARK  782  A    between atoms: C_1362  and  C_1363
REMARK  783  A    between atoms: C_1362  and  C_1365
REMARK  784  A    between atoms: C_1365  and  C_1366
REMARK  785  A    between atoms: C_1371  and  O_1372
REMARK  786  A    between atoms: N_1373  and  C_1374
REMARK  787  A    between atoms: C_1374  and  C_1375
REMARK  788  A    between atoms: C_1374  and  C_1377
REMARK  789  A    between atoms: C_1377  and  C_1378
REMARK  790  A    between atoms: C_1378  and  C_1379
REMARK  791  A    between atoms: C_1378  and  C_1380
REMARK  792  A    between atoms: C_1382  and  C_1383
REMARK  793  A    between atoms: C_1389  and  C_1390
REMARK  794  A    between atoms: N_1395  and  C_1396
REMARK  795  A    between atoms: C_1396  and  C_1399
REMARK  796  A    between atoms: C_1399  and  C_1400
REMARK  797  A    between atoms: C_1400  and  C_1401
REMARK  798  A    between atoms: N_1405  and  C_1406
REMARK  799  A    between atoms: C_1407  and  C_1412
REMARK  800  A    between atoms: C_1408  and  O_1410
REMARK  801  A    between atoms: C_1409  and  O_1411
REMARK  802  A    between atoms: O_1410  and  O_1411
REMARK  803  A    between atoms: C_1412  and  C_1414
REMARK  804  A    between atoms: C_1413  and  C_1415
REMARK  805  A    between atoms: S_1416  and  C_1418
REMARK  806  A    between atoms: S_1417  and  C_1419
REMARK  807  A    between atoms: C_1418  and  C_1419
REMARK  808  A    between atoms: N_1420  and  CA_1421
REMARK  809  A    between atoms: CA_1421  and  C_1422
REMARK  810  A    between atoms: CA_1421  and  CB_1424
REMARK  811  A    between atoms: CB_1424  and  CG1_1425
REMARK  812  A    between atoms: CB_1424  and  CG2_1426
REMARK  813  A    between atoms: CG1_1425  and  CD1_1427
REMARK  814  A    between atoms: N_1428  and  CA_1429
REMARK  815  A    between atoms: CA_1429  and  C_1430
REMARK  816  A    between atoms: CA_1429  and  CB_1432
REMARK  817  A    between atoms: CB_1432  and  CG_1433
REMARK  818  A    between atoms: CG_1433  and  CD_1434
REMARK  819  A    between atoms: N_1437  and  CA_1438
REMARK  820  A    between atoms: CA_1438  and  C_1439
REMARK  821  A    between atoms: N_1441  and  CA_1442
REMARK  822  A    between atoms: CA_1442  and  C_1443
REMARK  823  A    between atoms: CA_1442  and  CB_1445
REMARK  824  A    between atoms: CB_1445  and  CG_1446
REMARK  825  A    between atoms: CG_1446  and  CD_1447
REMARK  826  A    between atoms: CD_1447  and  NE_1448
REMARK  827  A    between atoms: N_1452  and  C_1453
REMARK  828  A    between atoms: C_1453  and  C_1454
REMARK  829  A    between atoms: C_1453  and  C_1456
REMARK  830  A    between atoms: C_1456  and  C_1457
REMARK  831  A    between atoms: C_1457  and  S_1458
REMARK  832  A    between atoms: N_1459  and  CA_1460
REMARK  833  A    between atoms: CA_1460  and  C_1461
REMARK  834  A    between atoms: CA_1460  and  CB_1463
REMARK  835  A    between atoms: CB_1463  and  CG_1464
REMARK  836  A    between atoms: N_1469  and  CA_1470
REMARK  837  A    between atoms: CA_1470  and  C_1471
REMARK  838  A    between atoms: CA_1470  and  CB_1473
REMARK  839  A    between atoms: CB_1473  and  CG_1474
REMARK  840  A    between atoms: N_1477  and  CA_1478
REMARK  841  A    between atoms: CA_1478  and  C_1479
REMARK  842  A    between atoms: CA_1478  and  CB_1481
REMARK  843  A    between atoms: CB_1481  and  CG_1482
REMARK  844  A    between atoms: CG_1482  and  CD_1483
REMARK  845  A    between atoms: N_1486  and  CA_1487
REMARK  846  A    between atoms: CA_1487  and  C_1488
REMARK  847  A    between atoms: CA_1487  and  CB_1490
REMARK  848  A    between atoms: CB_1490  and  CG_1491
REMARK  849  A    between atoms: CG_1491  and  CD_1492
REMARK  850  A    between atoms: CD_1492  and  CE_1493
REMARK  851  A    between atoms: CE_1493  and  NZ_1494
REMARK  852  A    between atoms: N_1495  and  CA_1496
REMARK  853  A    between atoms: CA_1496  and  C_1497
REMARK  854  A    between atoms: CA_1496  and  CB_1499
REMARK  855  A    between atoms: CB_1499  and  CG2_1500
REMARK  856  A    between atoms: CB_1499  and  CG1_1501
REMARK  857  A    between atoms: N_1502  and  CA_1503
REMARK  858  A    between atoms: CA_1503  and  C_1504
REMARK  859  A    between atoms: CA_1503  and  CB_1506
REMARK  860  A    between atoms: CB_1506  and  CG_1507
REMARK  861  A    between atoms: N_1510  and  CA_1511
REMARK  862  A    between atoms: CA_1511  and  C_1512
REMARK  863  A    between atoms: CA_1511  and  CB_1514
REMARK  864  A    between atoms: CB_1514  and  CG_1515
REMARK  865  A    between atoms: CG_1515  and  CD2_1516
REMARK  866  A    between atoms: CG_1515  and  CD1_1517
REMARK  867  A    between atoms: N_1518  and  CA_1519
REMARK  868  A    between atoms: CA_1519  and  C_1520
REMARK  869  A    between atoms: CA_1519  and  CB_1522
REMARK  870  A    between atoms: CB_1522  and  CG_1523
REMARK  871  A    between atoms: N_1532  and  CA_1533
REMARK  872  A    between atoms: CA_1533  and  C_1534
REMARK  873  A    between atoms: CA_1533  and  CB_1536
REMARK  874  A    between atoms: CB_1536  and  OG_1537
REMARK  875  A    between atoms: N_1538  and  CA_1539
REMARK  876  A    between atoms: CA_1539  and  C_1540
REMARK  877  A    between atoms: CA_1539  and  CB_1542
REMARK  878  A    between atoms: CB_1542  and  CG_1543
REMARK  879  A    between atoms: CG_1543  and  CD2_1544
REMARK  880  A    between atoms: CG_1543  and  CD1_1545
REMARK  881  A    between atoms: N_1546  and  CA_1547
REMARK  882  A    between atoms: CA_1547  and  C_1548
REMARK  883  A    between atoms: N_1550  and  CA_1551
REMARK  884  A    between atoms: CA_1551  and  C_1552
REMARK  885  A    between atoms: CA_1551  and  CB_1554
REMARK  886  A    between atoms: CB_1554  and  CG2_1555
REMARK  887  A    between atoms: CB_1554  and  CG1_1556
REMARK  888  A    between atoms: N_1557  and  CA_1558
REMARK  889  A    between atoms: CA_1558  and  C_1559
REMARK  890  A    between atoms: CA_1558  and  CB_1561
REMARK  891  A    between atoms: CB_1561  and  CG_1562
REMARK  892  A    between atoms: CG_1562  and  CD1_1563
REMARK  893  A    between atoms: CG_1562  and  CD2_1564
REMARK  894  A    between atoms: N_1565  and  CA_1566
REMARK  895  A    between atoms: CA_1566  and  C_1567
REMARK  896  A    between atoms: CA_1566  and  CB_1569
REMARK  897  A    between atoms: CB_1569  and  SG_1570
REMARK  898  A    between atoms: N_1571  and  CA_1572
REMARK  899  A    between atoms: CA_1572  and  C_1573
REMARK  900  A    between atoms: CA_1572  and  CB_1575
REMARK  901  A    between atoms: CB_1575  and  CG_1576
REMARK  902  A    between atoms: CZ_1581  and  OH_1582
REMARK  903  A    between atoms: N_1583  and  CA_1584
REMARK  904  A    between atoms: CA_1584  and  C_1585
REMARK  905  A    between atoms: CA_1584  and  CB_1587
REMARK  906  A    between atoms: CB_1587  and  CG_1588
REMARK  907  A    between atoms: CG_1588  and  CD_1589
REMARK  908  A    between atoms: N_1592  and  CA_1593
REMARK  909  A    between atoms: CA_1593  and  C_1594
REMARK  910  A    between atoms: CA_1593  and  CB_1596
REMARK  911  A    between atoms: CB_1596  and  CG_1597
REMARK  912  A    between atoms: N_1603  and  CA_1604
REMARK  913  A    between atoms: CA_1604  and  C_1605
REMARK  914  A    between atoms: CA_1604  and  CB_1607
REMARK  915  A    between atoms: CB_1607  and  CG_1608
REMARK  916  A    between atoms: CG_1608  and  CD1_1609
REMARK  917  A    between atoms: CG_1608  and  CD2_1610
REMARK  918  A    between atoms: N_1611  and  CA_1612
REMARK  919  A    between atoms: CA_1612  and  C_1613
REMARK  920  A    between atoms: CA_1612  and  CB_1615
REMARK  921  A    between atoms: CB_1615  and  CG2_1616
REMARK  922  A    between atoms: CB_1615  and  CG1_1617
REMARK  923  A    between atoms: N_1618  and  CA_1619
REMARK  924  A    between atoms: CA_1619  and  C_1620
REMARK  925  A    between atoms: N_1622  and  C_1623
REMARK  926  A    between atoms: C_1623  and  C_1624
REMARK  927  A    between atoms: C_1623  and  C_1626
REMARK  928  A    between atoms: C_1626  and  C_1627
REMARK  929  A    between atoms: C_1627  and  C_1628
REMARK  930  A    between atoms: CA_1630  and  C_1631
REMARK  931  A    between atoms: CA_1637  and  C_1638
REMARK  932  A    between atoms: N_1643  and  CA_1644
REMARK  933  A    between atoms: CA_1644  and  C_1645
REMARK  934  A    between atoms: CA_1644  and  CB_1647
REMARK  935  A    between atoms: CB_1647  and  CG_1648
REMARK  936  A    between atoms: N_1654  and  CA_1655
REMARK  937  A    between atoms: CA_1655  and  C_1656
REMARK  938  A    between atoms: CA_1655  and  CB_1658
REMARK  939  A    between atoms: CB_1658  and  CG_1659
REMARK  940  A    between atoms: CG_1659  and  CD_1660
REMARK  941  A    between atoms: N_1663  and  CA_1664
REMARK  942  A    between atoms: CA_1664  and  C_1665
REMARK  943  A    between atoms: CA_1664  and  CB_1667
REMARK  944  A    between atoms: N_1668  and  CA_1669
REMARK  945  A    between atoms: CA_1669  and  C_1670
REMARK  946  A    between atoms: CA_1669  and  CB_1672
REMARK  947  A    between atoms: CB_1672  and  CG_1673
REMARK  948  A    between atoms: N_1676  and  CA_1677
REMARK  949  A    between atoms: CA_1677  and  C_1678
REMARK  950  A    between atoms: CA_1677  and  CB_1680
REMARK  951  A    between atoms: CB_1680  and  OG1_1681
REMARK  952  A    between atoms: CB_1680  and  CG2_1682
REMARK  953  A    between atoms: N_1683  and  CA_1684
REMARK  954  A    between atoms: CA_1684  and  C_1685
REMARK  955  A    between atoms: CA_1684  and  CB_1687
REMARK  956  A    between atoms: CB_1687  and  CG_1688
REMARK  957  A    between atoms: CZ_1693  and  OH_1694
REMARK  958  A    between atoms: N_1695  and  CA_1696
REMARK  959  A    between atoms: CA_1696  and  C_1697
REMARK  960  A    between atoms: CA_1696  and  CB_1699
REMARK  961  A    between atoms: CB_1699  and  CG_1700
REMARK  962  A    between atoms: CG_1700  and  CD_1701
REMARK  963  A    between atoms: N_1704  and  CA_1705
REMARK  964  A    between atoms: CA_1705  and  C_1706
REMARK  965  A    between atoms: CA_1705  and  CB_1708
REMARK  966  A    between atoms: CB_1708  and  CG_1709
REMARK  967  A    between atoms: CG_1709  and  CD_1710
REMARK  968  A    between atoms: N_1713  and  CA_1714
REMARK  969  A    between atoms: CA_1714  and  C_1715
REMARK  970  A    between atoms: CA_1714  and  CB_1717
REMARK  971  A    between atoms: CB_1717  and  OG1_1718
REMARK  972  A    between atoms: CB_1717  and  CG2_1719
REMARK  973  A    between atoms: N_1720  and  CA_1721
REMARK  974  A    between atoms: CA_1721  and  C_1722
REMARK  975  A    between atoms: CA_1721  and  CB_1724
REMARK  976  A    between atoms: CB_1724  and  CG_1725
REMARK  977  A    between atoms: CZ_1730  and  OH_1731
REMARK  978  A    between atoms: N_1732  and  CA_1733
REMARK  979  A    between atoms: CA_1733  and  C_1734
REMARK  980  A    between atoms: CA_1733  and  CB_1736
REMARK  981  A    between atoms: CB_1736  and  SG_1737
REMARK  982  A    between atoms: N_1738  and  C_1739
REMARK  983  A    between atoms: C_1739  and  C_1740
REMARK  984  A    between atoms: C_1739  and  C_1742
REMARK  985  A    between atoms: C_1742  and  C_1743
REMARK  986  A    between atoms: C_1743  and  C_1744
REMARK  987  A    between atoms: C_1744  and  N_1745
REMARK  988  A    between atoms: N_1746  and  CA_1747
REMARK  989  A    between atoms: CA_1747  and  C_1748
REMARK  990  A    between atoms: CA_1747  and  CB_1750
REMARK  991  A    between atoms: CB_1750  and  CG1_1751
REMARK  992  A    between atoms: CB_1750  and  CG2_1752
REMARK  993  A    between atoms: CG1_1751  and  CD1_1753
REMARK  994  A    between atoms: N_1754  and  C_1755
REMARK  995  A    between atoms: C_1755  and  C_1756
REMARK  996  A    between atoms: C_1755  and  C_1758
REMARK  997  A    between atoms: C_1758  and  O_1759
REMARK  998  A    between atoms: N_1760  and  C_1761
REMARK  999  A    between atoms: C_1761  and  C_1762
REMARK  1000  A    between atoms: C_1761  and  C_1764
REMARK  1001  A    between atoms: C_1764  and  C_1765
REMARK  1002  A    between atoms: C_1765  and  C_1766
REMARK  1003  A    between atoms: C_1766  and  N_1767
REMARK  1004  A    between atoms: N_1771  and  C_1772
REMARK  1005  A    between atoms: C_1772  and  C_1773
REMARK  1006  A    between atoms: C_1772  and  C_1775
REMARK  1007  A    between atoms: C_1775  and  C_1776
REMARK  1008  A    between atoms: C_1775  and  C_1777
REMARK  1009  A    between atoms: N_1778  and  C_1779
REMARK  1010  A    between atoms: C_1779  and  C_1780
REMARK  1011  A    between atoms: C_1779  and  C_1782
REMARK  1012  A    between atoms: C_1782  and  C_1783
REMARK  1013  A    between atoms: C_1783  and  C_1784
REMARK  1014  A    between atoms: N_1787  and  C_1788
REMARK  1015  A    between atoms: C_1788  and  C_1789
REMARK  1016  A    between atoms: C_1788  and  C_1791
REMARK  1017  A    between atoms: C_1791  and  C_1792
REMARK  1018  A    between atoms: N_1798  and  C_1799
REMARK  1019  A    between atoms: C_1799  and  C_1800
REMARK  1020  A    between atoms: C_1799  and  C_1802
REMARK  1021  A    between atoms: C_1802  and  O_1803
REMARK  1022  A    between atoms: C_1802  and  C_1804
REMARK  1023  A    between atoms: N_1805  and  C_1806
REMARK  1024  A    between atoms: C_1806  and  C_1807
REMARK  1025  A    between atoms: C_1806  and  C_1809
REMARK  1026  A    between atoms: C_1809  and  C_1810
REMARK  1027  A    between atoms: C_1817  and  C_1818
REMARK  1028  A    between atoms: N_1823  and  C_1824
REMARK  1029  A    between atoms: C_1824  and  C_1825
REMARK  1030  A    between atoms: C_1824  and  C_1827
REMARK  1031  A    between atoms: C_1827  and  C_1828
REMARK  1032  A    between atoms: N_1831  and  C_1832
REMARK  1033  A    between atoms: C_1832  and  C_1833
REMARK  1034  A    between atoms: C_1832  and  C_1835
REMARK  1035  A    between atoms: C_1835  and  C_1836
REMARK  1036  A    between atoms: N_1842  and  C_1843
REMARK  1037  A    between atoms: C_1843  and  C_1844
REMARK  1038  A    between atoms: C_1843  and  C_1846
REMARK  1039  A    between atoms: C_1846  and  C_1847
REMARK  1040  A    between atoms: C_1846  and  C_1848
REMARK  1041  A    between atoms: N_1849  and  C_1850
REMARK  1042  A    between atoms: C_1850  and  C_1851
REMARK  1043  A    between atoms: C_1850  and  C_1853
REMARK  1044  A    between atoms: C_1853  and  O_1854
REMARK  1045  A    between atoms: C_1853  and  C_1855
REMARK  1046  A    between atoms: N_1856  and  C_1857
REMARK  1047  A    between atoms: C_1858  and  C_1859
REMARK  1048  A    between atoms: C_1858  and  C_1861
REMARK  1049  A    between atoms: C_1862  and  C_1863
REMARK  1050  A    between atoms: C_1862  and  C_1864
REMARK  1051  A    between atoms: C_1863  and  C_1865
REMARK  1052  A    between atoms: N_1871  and  C_1872
REMARK  1053  A    between atoms: C_1872  and  C_1873
REMARK  1054  A    between atoms: N_1875  and  CA_1876
REMARK  1055  A    between atoms: CA_1876  and  C_1877
REMARK  1056  A    between atoms: CA_1876  and  CB_1879
REMARK  1057  A    between atoms: N_1880  and  CA_1881
REMARK  1058  A    between atoms: CA_1881  and  C_1882
REMARK  1059  A    between atoms: CA_1881  and  CB_1884
REMARK  1060  A    between atoms: CB_1884  and  CG_1885
REMARK  1061  A    between atoms: CG_1885  and  CD_1886
REMARK  1062  A    between atoms: CD_1886  and  NE_1887
REMARK  1063  A    between atoms: N_1891  and  CA_1892
REMARK  1064  A    between atoms: CA_1892  and  C_1893
REMARK  1065  A    between atoms: CA_1892  and  CB_1895
REMARK  1066  A    between atoms: CB_1895  and  CG_1896
REMARK  1067  A    between atoms: N_1899  and  CA_1900
REMARK  1068  A    between atoms: CA_1900  and  C_1901
REMARK  1069  A    between atoms: CA_1900  and  CB_1903
REMARK  1070  A    between atoms: CB_1903  and  CG_1904
REMARK  1071  A    between atoms: CG_1904  and  CD1_1905
REMARK  1072  A    between atoms: CG_1904  and  CD2_1906
REMARK  1073  A    between atoms: N_1907  and  CA_1908
REMARK  1074  A    between atoms: CA_1908  and  C_1909
REMARK  1075  A    between atoms: CA_1908  and  CB_1911
REMARK  1076  A    between atoms: CB_1911  and  CG1_1912
REMARK  1077  A    between atoms: CB_1911  and  CG2_1913
REMARK  1078  A    between atoms: CG1_1912  and  CD1_1914
REMARK  1079  A    between atoms: N_1915  and  CA_1916
REMARK  1080  A    between atoms: CA_1916  and  C_1917
REMARK  1081  A    between atoms: CA_1916  and  CB_1919
REMARK  1082  A    between atoms: CB_1919  and  OG_1920
REMARK  1083  A    between atoms: N_1921  and  CA_1922
REMARK  1084  A    between atoms: CA_1922  and  C_1923
REMARK  1085  A    between atoms: CA_1922  and  CB_1925
REMARK  1086  A    between atoms: CB_1925  and  CG_1926
REMARK  1087  A    between atoms: CG_1926  and  CD_1927
REMARK  1088  A    between atoms: CD_1927  and  NE_1928
REMARK  1089  A    between atoms: N_1932  and  CA_1933
REMARK  1090  A    between atoms: CA_1933  and  C_1934
REMARK  1091  A    between atoms: CA_1933  and  CB_1936
REMARK  1092  A    between atoms: CB_1936  and  CG_1937
REMARK  1093  A    between atoms: CG_1937  and  CD2_1938
REMARK  1094  A    between atoms: CG_1937  and  CD1_1939
REMARK  1095  A    between atoms: N_1940  and  CA_1941
REMARK  1096  A    between atoms: CA_1941  and  C_1942
REMARK  1097  A    between atoms: CA_1941  and  CB_1944
REMARK  1098  A    between atoms: CB_1944  and  CG_1945
REMARK  1099  A    between atoms: CG_1945  and  CD2_1946
REMARK  1100  A    between atoms: CG_1945  and  CD1_1947
REMARK  1101  A    between atoms: N_1948  and  CA_1949
REMARK  1102  A    between atoms: CA_1949  and  C_1950
REMARK  1103  A    between atoms: CA_1949  and  CB_1952
REMARK  1104  A    between atoms: CB_1952  and  CG_1953
REMARK  1105  A    between atoms: CG_1953  and  CD_1954
REMARK  1106  A    between atoms: CD_1954  and  CE_1955
REMARK  1107  A    between atoms: CE_1955  and  NZ_1956
REMARK  1108  A    between atoms: N_1957  and  CA_1958
REMARK  1109  A    between atoms: CA_1958  and  C_1959
REMARK  1110  A    between atoms: CA_1958  and  CB_1961
REMARK  1111  A    between atoms: CB_1961  and  CG_1962
REMARK  1112  A    between atoms: N_1967  and  CA_1968
REMARK  1113  A    between atoms: CA_1968  and  C_1969
REMARK  1114  A    between atoms: CA_1968  and  CB_1971
REMARK  1115  A    between atoms: CB_1971  and  CG_1972
REMARK  1116  A    between atoms: CA_1976  and  C_1977
REMARK  1117  A    between atoms: N_1982  and  C_1983
REMARK  1118  A    between atoms: C_1983  and  C_1984
REMARK  1119  A    between atoms: C_1983  and  C_1986
REMARK  1120  A    between atoms: C_1986  and  O_1987
REMARK  1121  A    between atoms: N_1988  and  C_1989
REMARK  1122  A    between atoms: C_1989  and  C_1990
REMARK  1123  A    between atoms: C_1989  and  C_1992
REMARK  1124  A    between atoms: C_1992  and  C_1993
REMARK  1125  A    between atoms: C_1993  and  C_1994
REMARK  1126  A    between atoms: N_1997  and  C_1998
REMARK  1127  A    between atoms: C_1998  and  C_1999
REMARK  1128  A    between atoms: C_1998  and  C_2001
REMARK  1129  A    between atoms: C_2001  and  C_2002
REMARK  1130  A    between atoms: C_2002  and  C_2003
REMARK  1131  A    between atoms: C_2003  and  N_2004
REMARK  1132  A    between atoms: C_2009  and  C_2010
REMARK  1133  A    between atoms: N_2015  and  C_2017
REMARK  1134  A    between atoms: C_2016  and  C_2018
REMARK  1135  A    between atoms: C_2016  and  C_2021
REMARK  1136  A    between atoms: C_2021  and  C_2022
REMARK  1137  A    between atoms: C_2022  and  C_2023
REMARK  1138  A    between atoms: C_2023  and  S_2024
REMARK  1139  A    between atoms: C_2023  and  S_2025
REMARK  1140  A    between atoms: S_2024  and  C_2026
REMARK  1141  A    between atoms: S_2025  and  C_2027
REMARK  1142  A    between atoms: N_2028  and  CA_2029
REMARK  1143  A    between atoms: CA_2029  and  C_2030
REMARK  1144  A    between atoms: CA_2029  and  CB_2032
REMARK  1145  A    between atoms: CB_2032  and  CG_2033
REMARK  1146  A    between atoms: CG_2033  and  CD1_2034
REMARK  1147  A    between atoms: CG_2033  and  CD2_2035
REMARK  1148  A    between atoms: N_2036  and  CA_2037
REMARK  1149  A    between atoms: CA_2037  and  C_2038
REMARK  1150  A    between atoms: CA_2037  and  CB_2040
REMARK  1151  A    between atoms: N_2041  and  CA_2042
REMARK  1152  A    between atoms: CA_2042  and  C_2043
REMARK  1153  A    between atoms: CA_2042  and  CB_2045
REMARK  1154  A    between atoms: CB_2045  and  CG_2046
REMARK  1155  A    between atoms: CG_2046  and  CD_2047
REMARK  1156  A    between atoms: N_2050  and  CA_2051
REMARK  1157  A    between atoms: CA_2051  and  C_2052
REMARK  1158  A    between atoms: CA_2051  and  CB_2054
REMARK  1159  A    between atoms: CB_2054  and  CG2_2055
REMARK  1160  A    between atoms: CB_2054  and  CG1_2056
REMARK  1161  A    between atoms: N_2057  and  CA_2058
REMARK  1162  A    between atoms: CA_2058  and  C_2059
REMARK  1163  A    between atoms: CA_2058  and  CB_2061
REMARK  1164  A    between atoms: CB_2061  and  CG_2062
REMARK  1165  A    between atoms: CG_2062  and  CD1_2063
REMARK  1166  A    between atoms: CG_2062  and  CD2_2064
REMARK  1167  A    between atoms: N_2065  and  CA_2066
REMARK  1168  A    between atoms: CA_2066  and  C_2067
REMARK  1169  A    between atoms: CA_2066  and  CB_2069
REMARK  1170  A    between atoms: CB_2069  and  CG_2070
REMARK  1171  A    between atoms: CG_2070  and  CD_2071
REMARK  1172  A    between atoms: N_2074  and  CA_2075
REMARK  1173  A    between atoms: CA_2075  and  C_2076
REMARK  1174  A    between atoms: CA_2075  and  CB_2078
REMARK  1175  A    between atoms: CB_2078  and  CG_2079
REMARK  1176  A    between atoms: CA_2085  and  C_2086
REMARK  1177  A    between atoms: N_2091  and  CA_2092
REMARK  1178  A    between atoms: CA_2092  and  C_2093
REMARK  1179  A    between atoms: CA_2092  and  CB_2095
REMARK  1180  A    between atoms: CB_2095  and  CG_2096
REMARK  1181  A    between atoms: N_2105  and  CA_2106
REMARK  1182  A    between atoms: CA_2106  and  C_2107
REMARK  1183  A    between atoms: CA_2106  and  CB_2109
REMARK  1184  A    between atoms: CB_2109  and  CG1_2110
REMARK  1185  A    between atoms: CB_2109  and  CG2_2111
REMARK  1186  A    between atoms: CG1_2110  and  CD1_2112
REMARK  1187  A    between atoms: N_2113  and  CA_2114
REMARK  1188  A    between atoms: CA_2114  and  C_2115
REMARK  1189  A    between atoms: CA_2114  and  CB_2117
REMARK  1190  A    between atoms: CB_2117  and  OG1_2118
REMARK  1191  A    between atoms: CB_2117  and  CG2_2119
REMARK  1192  A    between atoms: N_2120  and  CA_2121
REMARK  1193  A    between atoms: CA_2121  and  C_2122
REMARK  1194  A    between atoms: CA_2121  and  CB_2124
REMARK  1195  A    between atoms: N_2125  and  CA_2126
REMARK  1196  A    between atoms: CA_2126  and  C_2127
REMARK  1197  A    between atoms: CA_2126  and  CB_2129
REMARK  1198  A    between atoms: CB_2129  and  CG_2130
REMARK  1199  A    between atoms: N_2133  and  CA_2134
REMARK  1200  A    between atoms: CA_2134  and  C_2135
REMARK  1201  A    between atoms: CA_2134  and  CB_2137
REMARK  1202  A    between atoms: CB_2137  and  OG_2138
REMARK  1203  A    between atoms: N_2139  and  CA_2140
REMARK  1204  A    between atoms: CA_2140  and  C_2141
REMARK  1205  A    between atoms: CA_2140  and  CB_2143
REMARK  1206  A    between atoms: CB_2143  and  OG_2144
REMARK  1207  A    between atoms: N_2145  and  C_2146
REMARK  1208  A    between atoms: C_2146  and  C_2147
REMARK  1209  A    between atoms: C_2146  and  C_2149
REMARK  1210  A    between atoms: C_2149  and  C_2150
REMARK  1211  A    between atoms: N_2151  and  CA_2152
REMARK  1212  A    between atoms: CA_2152  and  C_2153
REMARK  1213  A    between atoms: CA_2152  and  CB_2155
REMARK  1214  A    between atoms: CB_2155  and  OG_2156
REMARK  1215  A    between atoms: N_2157  and  CA_2158
REMARK  1216  A    between atoms: CA_2158  and  C_2159
REMARK  1217  A    between atoms: CA_2158  and  CB_2161
REMARK  1218  A    between atoms: CB_2161  and  CG_2162
REMARK  1219  A    between atoms: CG_2162  and  CD_2163
REMARK  1220  A    between atoms: CA_2167  and  C_2168
REMARK  1221  A    between atoms: CA_2174  and  C_2175
REMARK  1222  A    between atoms: N_2180  and  CA_2181
REMARK  1223  A    between atoms: CA_2181  and  C_2182
REMARK  1224  A    between atoms: CA_2181  and  CB_2184
REMARK  1225  A    between atoms: CB_2184  and  OG_2185
REMARK  1226  A    between atoms: N_2186  and  CA_2187
REMARK  1227  A    between atoms: CA_2187  and  C_2188
REMARK  1228  A    between atoms: CA_2187  and  CB_2190
REMARK  1229  A    between atoms: CB_2190  and  CG_2191
REMARK  1230  A    between atoms: N_2200  and  CA_2201
REMARK  1231  A    between atoms: CA_2201  and  C_2202
REMARK  1232  A    between atoms: CA_2201  and  CB_2204
REMARK  1233  A    between atoms: CB_2204  and  CG2_2205
REMARK  1234  A    between atoms: CB_2204  and  CG1_2206
REMARK  1235  A    between atoms: N_2207  and  CA_2208
REMARK  1236  A    between atoms: CA_2208  and  C_2209
REMARK  1237  A    between atoms: CA_2208  and  CB_2211
REMARK  1238  A    between atoms: CB_2211  and  OG1_2212
REMARK  1239  A    between atoms: CB_2211  and  CG2_2213
REMARK  1240  A    between atoms: N_2214  and  CA_2215
REMARK  1241  A    between atoms: CA_2215  and  C_2216
REMARK  1242  A    between atoms: CA_2215  and  CB_2218
REMARK  1243  A    between atoms: CB_2218  and  CG_2219
REMARK  1244  A    between atoms: CG_2219  and  CD_2220
REMARK  1245  A    between atoms: N_2223  and  CA_2224
REMARK  1246  A    between atoms: CA_2224  and  C_2225
REMARK  1247  A    between atoms: CA_2224  and  CB_2227
REMARK  1248  A    between atoms: CB_2227  and  CG_2228
REMARK  1249  A    between atoms: CG_2228  and  SD_2229
REMARK  1250  A    between atoms: SD_2229  and  CE_2230
REMARK  1251  A    between atoms: N_2231  and  CA_2232
REMARK  1252  A    between atoms: CA_2232  and  C_2233
REMARK  1253  A    between atoms: CA_2232  and  CB_2235
REMARK  1254  A    between atoms: CB_2235  and  CG_2236
REMARK  1255  A    between atoms: CG_2236  and  CD1_2237
REMARK  1256  A    between atoms: CG_2236  and  CD2_2238
REMARK  1257  A    between atoms: N_2239  and  CA_2240
REMARK  1258  A    between atoms: CA_2240  and  C_2241
REMARK  1259  A    between atoms: CA_2240  and  CB_2243
REMARK  1260  A    between atoms: CB_2243  and  CG_2244
REMARK  1261  A    between atoms: CG_2244  and  CD1_2245
REMARK  1262  A    between atoms: CG_2244  and  CD2_2246
REMARK  1263  A    between atoms: N_2247  and  CA_2248
REMARK  1264  A    between atoms: CA_2248  and  C_2249
REMARK  1265  A    between atoms: CA_2248  and  CB_2251
REMARK  1266  A    between atoms: CB_2251  and  CG_2252
REMARK  1267  A    between atoms: CG_2252  and  CD_2253
REMARK  1268  A    between atoms: N_2256  and  CA_2257
REMARK  1269  A    between atoms: CA_2257  and  C_2258
REMARK  1270  A    between atoms: CA_2257  and  CB_2260
REMARK  1271  A    between atoms: CB_2260  and  CG_2261
REMARK  1272  A    between atoms: CG_2261  and  CD_2262
REMARK  1273  A    between atoms: CD_2262  and  CE_2263
REMARK  1274  A    between atoms: CE_2263  and  NZ_2264
REMARK  1275  A    between atoms: N_2265  and  C_2266
REMARK  1276  A    between atoms: C_2266  and  C_2267
REMARK  1277  A    between atoms: C_2266  and  C_2269
REMARK  1278  A    between atoms: C_2269  and  C_2270
REMARK  1279  A    between atoms: N_2271  and  CA_2272
REMARK  1280  A    between atoms: CA_2272  and  C_2273
REMARK  1281  A    between atoms: CA_2272  and  CB_2275
REMARK  1282  A    between atoms: CB_2275  and  CG_2276
REMARK  1283  A    between atoms: CG_2276  and  CD2_2277
REMARK  1284  A    between atoms: CG_2276  and  CD1_2278
REMARK  1285  A    between atoms: N_2279  and  CA_2280
REMARK  1286  A    between atoms: CA_2280  and  C_2281
REMARK  1287  A    between atoms: CA_2280  and  CB_2283
REMARK  1288  A    between atoms: CB_2283  and  CG_2284
REMARK  1289  A    between atoms: N_2293  and  CA_2294
REMARK  1290  A    between atoms: CA_2294  and  C_2295
REMARK                            x       y       z     vdW  Elec       q    Type
REMARK                         _______ _______ _______ _____ _____    ______ ____
ROOT
ATOM      1  CA  LYS B  28     -31.496  41.423  23.542  0.00  0.00    +0.159 C 
ENDROOT
BRANCH   1   2
ATOM      2  C   LYS B  28     -32.133  42.693  24.095  0.00  0.00    +0.234 C 
ATOM      3  O   LYS B  28     -31.894  43.065  25.252  0.00  0.00    -0.274 OA
ATOM      4  N   LEU B  29     -32.951  43.365  23.294  0.00  0.00    -0.302 N 
ATOM      5  H   LEU B  29     -33.169  42.985  22.412  0.00  0.00    +0.150 HD
BRANCH   4   6
ATOM      6  CA  LEU B  29     -33.538  44.643  23.671  0.00  0.00    +0.159 C 
BRANCH   6   7
ATOM      7  C   LEU B  29     -34.922  44.523  24.287  0.00  0.00    +0.234 C 
ATOM      8  O   LEU B  29     -35.385  45.496  24.892  0.00  0.00    -0.274 OA
ATOM      9  N   SER B  30     -35.573  43.359  24.159  0.00  0.00    -0.301 N 
ATOM     10  H   SER B  30     -35.094  42.628  23.706  0.00  0.00    +0.150 HD
BRANCH   9  11
ATOM     11  CA  SER B  30     -36.930  43.071  24.629  0.00  0.00    +0.184 C 
BRANCH  11  12
ATOM     12  C   SER B  30     -37.982  43.689  23.718  0.00  0.00    +0.236 C 
ATOM     13  O   SER B  30     -38.899  42.994  23.277  0.00  0.00    -0.274 OA
ATOM     14  N   LYS B  31     -37.880  44.987  23.446  0.00  0.00    -0.302 N 
ATOM     15  H   LYS B  31     -37.229  45.539  23.937  0.00  0.00    +0.150 HD
BRANCH  14  16
ATOM     16  CA  LYS B  31     -38.725  45.600  22.427  0.00  0.00    +0.159 C 
BRANCH  16  17
ATOM     17  C   LYS B  31     -37.954  46.764  21.827  0.00  0.00    +0.234 C 
ATOM     18  O   LYS B  31     -36.957  47.222  22.389  0.00  0.00    -0.274 OA
ATOM     19  N   PHE B  32     -38.420  47.226  20.674  0.00  0.00    -0.302 N 
ATOM     20  H   PHE B  32     -39.244  46.827  20.312  0.00  0.00    +0.150 HD
BRANCH  19  21
ATOM     21  CA  PHE B  32     -37.780  48.292  19.913  0.00  0.00    +0.163 C 
BRANCH  21  22
ATOM     22  C   PHE B  32     -38.549  49.590  20.118  0.00  0.00    +0.234 C 
ATOM     23  O   PHE B  32     -39.775  49.571  20.250  0.00  0.00    -0.274 OA
ATOM     24  N   ASP B  33     -37.836  50.724  20.122  0.00  0.00    -0.302 N 
ATOM     25  H   ASP B  33     -36.852  50.706  20.082  0.00  0.00    +0.150 HD
BRANCH  24  26
ATOM     26  CA  ASP B  33     -38.564  51.986  20.187  0.00  0.00    +0.164 C 
BRANCH  26  27
ATOM     27  C   ASP B  33     -39.204  52.279  18.829  0.00  0.00    +0.234 C 
ATOM     28  O   ASP B  33     -39.054  51.530  17.861  0.00  0.00    -0.274 OA
ATOM     29  N   GLU B  34     -39.921  53.401  18.756  0.00  0.00    -0.302 N 
ATOM     30  H   GLU B  34     -39.908  54.042  19.503  0.00  0.00    +0.150 HD
BRANCH  29  31
ATOM     31  CA  GLU B  34     -40.725  53.679  17.571  0.00  0.00    +0.159 C 
BRANCH  31  32
ATOM     32  C   GLU B  34     -39.862  53.981  16.352  0.00  0.00    +0.234 C 
ATOM     33  O   GLU B  34     -40.237  53.622  15.230  0.00  0.00    -0.274 OA
ATOM     34  N   GLN B  35     -38.718  54.645  16.547  0.00  0.00    -0.302 N 
ATOM     35  H   GLN B  35     -38.472  54.930  17.457  0.00  0.00    +0.150 HD
BRANCH  34  36
ATOM     36  CA  GLN B  35     -37.828  54.954  15.430  0.00  0.00    +0.159 C 
BRANCH  36  37
ATOM     37  C   GLN B  35     -37.245  53.684  14.830  0.00  0.00    +0.234 C 
ATOM     38  O   GLN B  35     -37.221  53.516  13.603  0.00  0.00    -0.274 OA
ATOM     39  N   ARG B  36     -36.744  52.790  15.682  0.00  0.00    -0.302 N 
ATOM     40  H   ARG B  36     -36.747  52.976  16.649  0.00  0.00    +0.150 HD
BRANCH  39  41
ATOM     41  CA  ARG B  36     -36.191  51.535  15.183  0.00  0.00    +0.159 C 
BRANCH  41  42
ATOM     42  C   ARG B  36     -37.256  50.694  14.489  0.00  0.00    +0.234 C 
ATOM     43  O   ARG B  36     -37.006  50.135  13.416  0.00  0.00    -0.274 OA
ATOM     44  N   THR B  37     -38.447  50.587  15.092  0.00  0.00    -0.300 N 
ATOM     45  H   THR B  37     -38.594  51.035  15.956  0.00  0.00    +0.150 HD
BRANCH  44  46
ATOM     46  CA  THR B  37     -39.536  49.814  14.488  0.00  0.00    +0.187 C 
BRANCH  46  47
ATOM     47  C   THR B  37     -39.933  50.387  13.132  0.00  0.00    +0.236 C 
ATOM     48  O   THR B  37     -40.031  49.658  12.137  0.00  0.00    -0.274 OA
ATOM     49  N   ALA B  38     -40.195  51.696  13.076  0.00  0.00    -0.303 N 
ATOM     50  H   ALA B  38     -40.077  52.260  13.874  0.00  0.00    +0.149 HD
BRANCH  49  51
ATOM     51  CA  ALA B  38     -40.657  52.283  11.824  0.00  0.00    +0.156 C 
ATOM     52  CB  ALA B  38     -41.057  53.746  12.050  0.00  0.00    +0.038 C 
BRANCH  51  53
ATOM     53  C   ALA B  38     -39.601  52.158  10.731  0.00  0.00    +0.234 C 
ATOM     54  O   ALA B  38     -39.940  51.983   9.555  0.00  0.00    -0.274 OA
ATOM     55  N   THR B  39     -38.317  52.220  11.099  0.00  0.00    -0.300 N 
ATOM     56  H   THR B  39     -38.083  52.365  12.044  0.00  0.00    +0.150 HD
BRANCH  55  57
ATOM     57  CA  THR B  39     -37.263  52.073  10.101  0.00  0.00    +0.187 C 
BRANCH  57  58
ATOM     58  C   THR B  39     -37.238  50.654   9.531  0.00  0.00    +0.236 C 
ATOM     59  O   THR B  39     -37.160  50.476   8.311  0.00  0.00    -0.274 OA
ATOM     60  N   TYR B  40     -37.336  49.637  10.394  0.00  0.00    -0.302 N 
ATOM     61  H   TYR B  40     -37.346  49.821  11.361  0.00  0.00    +0.150 HD
BRANCH  60  62
ATOM     62  CA  TYR B  40     -37.429  48.252   9.921  0.00  0.00    +0.163 C 
BRANCH  62  63
ATOM     63  C   TYR B  40     -38.654  48.055   9.035  0.00  0.00    +0.234 C 
ATOM     64  O   TYR B  40     -38.585  47.401   7.983  0.00  0.00    -0.274 OA
ATOM     65  N   ILE B  41     -39.803  48.588   9.464  0.00  0.00    -0.302 N 
ATOM     66  H   ILE B  41     -39.831  49.090  10.310  0.00  0.00    +0.150 HD
BRANCH  65  67
ATOM     67  CA  ILE B  41     -41.014  48.420   8.669  0.00  0.00    +0.162 C 
BRANCH  67  68
ATOM     68  C   ILE B  41     -40.836  49.062   7.300  0.00  0.00    +0.234 C 
ATOM     69  O   ILE B  41     -41.229  48.489   6.276  0.00  0.00    -0.274 OA
ATOM     70  N   THR B  42     -40.215  50.246   7.254  0.00  0.00    -0.300 N 
ATOM     71  H   THR B  42     -39.944  50.688   8.091  0.00  0.00    +0.150 HD
BRANCH  70  72
ATOM     72  CA  THR B  42     -39.936  50.888   5.971  0.00  0.00    +0.187 C 
BRANCH  72  73
ATOM     73  C   THR B  42     -39.088  49.989   5.083  0.00  0.00    +0.236 C 
ATOM     74  O   THR B  42     -39.398  49.792   3.902  0.00  0.00    -0.274 OA
ATOM     75  N   GLU B  43     -38.011  49.427   5.645  0.00  0.00    -0.302 N 
ATOM     76  H   GLU B  43     -37.817  49.592   6.596  0.00  0.00    +0.150 HD
BRANCH  75  77
ATOM     77  CA  GLU B  43     -37.122  48.574   4.867  0.00  0.00    +0.159 C 
BRANCH  77  78
ATOM     78  C   GLU B  43     -37.829  47.293   4.438  0.00  0.00    +0.234 C 
ATOM     79  O   GLU B  43     -37.696  46.859   3.288  0.00  0.00    -0.274 OA
ATOM     80  N   LEU B  44     -38.596  46.687   5.348  0.00  0.00    -0.302 N 
ATOM     81  H   LEU B  44     -38.619  47.028   6.271  0.00  0.00    +0.150 HD
BRANCH  80  82
ATOM     82  CA  LEU B  44     -39.400  45.525   4.988  0.00  0.00    +0.159 C 
BRANCH  82  83
ATOM     83  C   LEU B  44     -40.383  45.855   3.868  0.00  0.00    +0.234 C 
ATOM     84  O   LEU B  44     -40.548  45.072   2.923  0.00  0.00    -0.274 OA
ATOM     85  N   ALA B  45     -41.044  47.017   3.949  0.00  0.00    -0.303 N 
ATOM     86  H   ALA B  45     -40.862  47.640   4.689  0.00  0.00    +0.149 HD
BRANCH  85  87
ATOM     87  CA  ALA B  45     -42.037  47.355   2.932  0.00  0.00    +0.156 C 
ATOM     88  CB  ALA B  45     -42.892  48.539   3.389  0.00  0.00    +0.038 C 
BRANCH  87  89
ATOM     89  C   ALA B  45     -41.375  47.659   1.597  0.00  0.00    +0.234 C 
ATOM     90  O   ALA B  45     -41.927  47.338   0.539  0.00  0.00    -0.274 OA
ATOM     91  N   ASN B  46     -40.191  48.274   1.623  0.00  0.00    -0.302 N 
ATOM     92  H   ASN B  46     -39.827  48.604   2.476  0.00  0.00    +0.150 HD
BRANCH  91  93
ATOM     93  CA  ASN B  46     -39.436  48.457   0.390  0.00  0.00    +0.168 C 
BRANCH  93  94
ATOM     94  C   ASN B  46     -39.099  47.105  -0.229  0.00  0.00    +0.234 C 
ATOM     95  O   ASN B  46     -39.310  46.886  -1.426  0.00  0.00    -0.274 OA
ATOM     96  N   ALA B  47     -38.580  46.181   0.588  0.00  0.00    -0.303 N 
ATOM     97  H   ALA B  47     -38.445  46.396   1.539  0.00  0.00    +0.149 HD
BRANCH  96  98
ATOM     98  CA  ALA B  47     -38.211  44.858   0.090  0.00  0.00    +0.156 C 
ATOM     99  CB  ALA B  47     -37.510  44.051   1.192  0.00  0.00    +0.038 C 
BRANCH  98 100
ATOM    100  C   ALA B  47     -39.433  44.100  -0.428  0.00  0.00    +0.234 C 
ATOM    101  O   ALA B  47     -39.376  43.476  -1.493  0.00  0.00    -0.274 OA
ATOM    102  N   LEU B  48     -40.546  44.134   0.316  0.00  0.00    -0.302 N 
ATOM    103  H   LEU B  48     -40.557  44.633   1.165  0.00  0.00    +0.150 HD
BRANCH 102 104
ATOM    104  CA  LEU B  48     -41.746  43.429  -0.134  0.00  0.00    +0.159 C 
BRANCH 104 105
ATOM    105  C   LEU B  48     -42.338  44.066  -1.382  0.00  0.00    +0.234 C 
ATOM    106  O   LEU B  48     -42.905  43.362  -2.226  0.00  0.00    -0.274 OA
ATOM    107  N   SER B  49     -42.217  45.389  -1.519  0.00  0.00    -0.301 N 
ATOM    108  H   SER B  49     -41.810  45.921  -0.798  0.00  0.00    +0.150 HD
BRANCH 107 109
ATOM    109  CA  SER B  49     -42.684  46.048  -2.729  0.00  0.00    +0.184 C 
BRANCH 109 110
ATOM    110  C   SER B  49     -41.966  45.491  -3.944  0.00  0.00    +0.236 C 
ATOM    111  O   SER B  49     -42.576  45.251  -4.990  0.00  0.00    -0.274 OA
ATOM    112  N   TYR B  50     -40.654  45.307  -3.824  0.00  0.00    -0.302 N 
ATOM    113  H   TYR B  50     -40.206  45.549  -2.981  0.00  0.00    +0.150 HD
BRANCH 112 114
ATOM    114  CA  TYR B  50     -39.871  44.754  -4.918  0.00  0.00    +0.163 C 
BRANCH 114 115
ATOM    115  C   TYR B  50     -40.297  43.319  -5.213  0.00  0.00    +0.234 C 
ATOM    116  O   TYR B  50     -40.543  42.960  -6.369  0.00  0.00    -0.274 OA
ATOM    117  N   CYS B  51     -40.407  42.492  -4.168  0.00  0.00    -0.302 N 
ATOM    118  H   CYS B  51     -40.155  42.809  -3.271  0.00  0.00    +0.150 HD
BRANCH 117 119
ATOM    119  CA  CYS B  51     -40.895  41.126  -4.337  0.00  0.00    +0.168 C 
BRANCH 119 120
ATOM    120  C   CYS B  51     -42.241  41.111  -5.046  0.00  0.00    +0.235 C 
ATOM    121  O   CYS B  51     -42.415  40.424  -6.057  0.00  0.00    -0.274 OA
ATOM    122  N   HIS B  52     -43.211  41.879  -4.536  0.00  0.00    -0.302 N 
ATOM    123  H   HIS B  52     -43.027  42.497  -3.792  0.00  0.00    +0.150 HD
BRANCH 122 124
ATOM    124  CA  HIS B  52     -44.547  41.777  -5.111  0.00  0.00    +0.165 C 
BRANCH 124 125
ATOM    125  C   HIS B  52     -44.586  42.300  -6.537  0.00  0.00    +0.234 C 
ATOM    126  O   HIS B  52     -45.434  41.864  -7.323  0.00  0.00    -0.274 OA
ATOM    127  N   UNK B  53     -43.667  43.205  -6.899  0.00  0.00    -0.301 N 
ATOM    128  H   UNK B  53     -43.041  43.564  -6.230  0.00  0.00    +0.150 HD
BRANCH 127 129
ATOM    129  C   UNK B  53     -43.592  43.660  -8.287  0.00  0.00    +0.184 C 
BRANCH 129 130
ATOM    130  C   UNK B  53     -43.125  42.541  -9.209  0.00  0.00    +0.236 C 
ATOM    131  O   UNK B  53     -43.485  42.521 -10.390  0.00  0.00    -0.274 OA
ATOM    132  N   UNK B  53     -42.309  41.623  -8.695  0.00  0.00    -0.302 N 
ATOM    133  H   UNK B  53     -41.905  41.792  -7.813  0.00  0.00    +0.150 HD
BRANCH 132 134
ATOM    134  C   UNK B  53     -41.989  40.380  -9.382  0.00  0.00    +0.159 C 
BRANCH 134 135
ATOM    135  C   UNK B  53     -43.042  39.300  -9.157  0.00  0.00    +0.233 C 
ATOM    136  O   UNK B  53     -42.849  38.169  -9.624  0.00  0.00    -0.274 OA
ATOM    137  N   UNK B  53     -44.147  39.638  -8.477  0.00  0.00    -0.317 N 
ATOM    138  C   UNK B  53     -45.216  38.693  -8.153  0.00  0.00    +0.128 C 
ATOM    139  H   UNK B  53     -44.244  40.572  -8.180  0.00  0.00    +0.148 HD
ENDBRANCH 134 135
BRANCH 134 140
ATOM    140  C   UNK B  53     -40.620  39.865  -8.931  0.00  0.00    +0.032 C 
BRANCH 140 141
ATOM    141  C   UNK B  53     -39.468  40.881  -9.003  0.00  0.00    +0.007 C 
BRANCH 141 142
ATOM    142  C   UNK B  53     -39.164  41.248 -10.436  0.00  0.00    +0.051 C 
BRANCH 142 143
ATOM    143  C   UNK B  53     -37.777  41.857 -10.595  0.00  0.00    +0.127 C 
BRANCH 143 144
ATOM    144  N   UNK B  53     -37.813  43.260 -11.099  0.00  0.00    +0.219 N 
ATOM    145  H   UNK B  53     -38.311  43.849 -10.431  0.00  0.00    +0.199 HD
ATOM    146  H   UNK B  53     -38.293  43.286 -11.999  0.00  0.00    +0.199 HD
ATOM    147  H   UNK B  53     -36.860  43.605 -11.212  0.00  0.00    +0.199 HD
ENDBRANCH 143 144
ENDBRANCH 142 143
ENDBRANCH 141 142
ENDBRANCH 140 141
ENDBRANCH 134 140
ENDBRANCH 132 134
ENDBRANCH 129 130
BRANCH 129 148
ATOM    148  C   UNK B  53     -42.660  44.866  -8.410  0.00  0.00    +0.187 C 
BRANCH 148 149
ATOM    149  O   UNK B  53     -41.287  44.484  -8.331  0.00  0.00    -0.393 OA
ATOM    150  H   UNK B  53     -41.077  43.879  -9.060  0.00  0.00    +0.209 HD
ENDBRANCH 148 149
ENDBRANCH 129 148
ENDBRANCH 127 129
ENDBRANCH 124 125
BRANCH 124 151
ATOM    151  CB  HIS B  52     -45.563  42.490  -4.225  0.00  0.00    +0.086 C 
BRANCH 151 152
ATOM    152  CG  HIS B  52     -45.723  41.842  -2.882  0.00  0.00    +0.038 A 
ATOM    153  ND1 HIS B  52     -46.569  42.329  -1.913  0.00  0.00    -0.348 N 
ATOM    154  CD2 HIS B  52     -45.137  40.740  -2.350  0.00  0.00    +0.133 A 
ATOM    155  CE1 HIS B  52     -46.499  41.558  -0.838  0.00  0.00    +0.196 A 
ATOM    156  NE2 HIS B  52     -45.637  40.585  -1.076  0.00  0.00    -0.244 NA
ATOM    157  H   HIS B  52     -47.138  43.127  -2.004  0.00  0.00    +0.166 HD
ENDBRANCH 151 152
ENDBRANCH 124 151
ENDBRANCH 122 124
ENDBRANCH 119 120
BRANCH 119 158
ATOM    158  CB  CYS B  51     -41.020  40.432  -2.975  0.00  0.00    +0.097 C 
BRANCH 158 159
ATOM    159  SG  CYS B  51     -39.436  40.036  -2.184  0.00  0.00    -0.176 S 
ATOM    160  H   CYS B  51     -38.748  39.158  -2.962  0.00  0.00    +0.102 HD
ENDBRANCH 158 159
ENDBRANCH 119 158
ENDBRANCH 117 119
ENDBRANCH 114 115
BRANCH 114 161
ATOM    161  CB  TYR B  50     -38.391  44.832  -4.559  0.00  0.00    +0.067 C 
BRANCH 161 162
ATOM    162  CG  TYR B  50     -37.474  44.190  -5.561  0.00  0.00    -0.045 A 
ATOM    163  CD1 TYR B  50     -37.063  44.877  -6.691  0.00  0.00    +0.007 A 
ATOM    164  CD2 TYR B  50     -37.016  42.893  -5.372  0.00  0.00    +0.007 A 
ATOM    165  CE1 TYR B  50     -36.214  44.287  -7.608  0.00  0.00    +0.045 A 
ATOM    166  CE2 TYR B  50     -36.180  42.298  -6.278  0.00  0.00    +0.045 A 
ATOM    167  CZ  TYR B  50     -35.774  42.992  -7.388  0.00  0.00    +0.117 A 
BRANCH 167 168
ATOM    168  OH  TYR B  50     -34.927  42.386  -8.286  0.00  0.00    -0.507 OA
ATOM    169  H   TYR B  50     -34.643  42.850  -9.049  0.00  0.00    +0.292 HD
ENDBRANCH 167 168
ENDBRANCH 161 162
ENDBRANCH 114 161
ENDBRANCH 112 114
ENDBRANCH 109 110
BRANCH 109 170
ATOM    170  CB  SER B  49     -42.427  47.552  -2.639  0.00  0.00    +0.187 C 
BRANCH 170 171
ATOM    171  OG  SER B  49     -43.401  48.180  -1.846  0.00  0.00    -0.393 OA
ATOM    172  H   SER B  49     -44.276  48.045  -2.242  0.00  0.00    +0.209 HD
ENDBRANCH 170 171
ENDBRANCH 109 170
ENDBRANCH 107 109
ENDBRANCH 104 105
BRANCH 104 173
ATOM    173  CB  LEU B  48     -42.788  43.389   0.986  0.00  0.00    +0.034 C 
BRANCH 173 174
ATOM    174  CG  LEU B  48     -42.459  42.495   2.177  0.00  0.00    -0.015 C 
ATOM    175  CD2 LEU B  48     -43.479  42.721   3.270  0.00  0.00    +0.007 C 
ATOM    176  CD1 LEU B  48     -42.394  41.000   1.768  0.00  0.00    +0.007 C 
ENDBRANCH 173 174
ENDBRANCH 104 173
ENDBRANCH 102 104
ENDBRANCH  98 100
ENDBRANCH  96  98
ENDBRANCH  93  94
BRANCH  93 177
ATOM    177  CB  ASN B  46     -38.155  49.246   0.672  0.00  0.00    +0.127 C 
BRANCH 177 178
ATOM    178  CG  ASN B  46     -38.378  50.744   0.732  0.00  0.00    +0.213 C 
ATOM    179  OD1 ASN B  46     -39.376  51.262   0.245  0.00  0.00    -0.276 OA
ATOM    180  ND2 ASN B  46     -37.433  51.447   1.336  0.00  0.00    -0.329 N 
ATOM    181  H   ASN B  46     -37.518  52.425   1.409  0.00  0.00    +0.145 HD
ATOM    182  H   ASN B  46     -36.646  50.992   1.713  0.00  0.00    +0.145 HD
ENDBRANCH 177 178
ENDBRANCH  93 177
ENDBRANCH  91  93
ENDBRANCH  87  89
ENDBRANCH  85  87
ENDBRANCH  82  83
BRANCH  82 183
ATOM    183  CB  LEU B  44     -40.150  45.029   6.219  0.00  0.00    +0.034 C 
BRANCH 183 184
ATOM    184  CG  LEU B  44     -39.451  44.048   7.137  0.00  0.00    -0.015 C 
ATOM    185  CD2 LEU B  44     -40.114  44.108   8.500  0.00  0.00    +0.007 C 
ATOM    186  CD1 LEU B  44     -39.534  42.639   6.536  0.00  0.00    +0.007 C 
ENDBRANCH 183 184
ENDBRANCH  82 183
ENDBRANCH  80  82
ENDBRANCH  77  78
BRANCH  77 187
ATOM    187  CB  GLU B  43     -35.856  48.276   5.685  0.00  0.00    +0.037 C 
BRANCH 187 188
ATOM    188  CG  GLU B  43     -35.094  49.564   6.007  0.00  0.00    +0.054 C 
BRANCH 188 189
ATOM    189  CD  GLU B  43     -33.884  49.400   6.919  0.00  0.00    +0.042 C 
ATOM    190  OE2 GLU B  43     -33.820  48.429   7.698  0.00  0.00    -0.550 OA
ATOM    191  OE1 GLU B  43     -33.013  50.297   6.887  0.00  0.00    -0.550 OA
ENDBRANCH 188 189
ENDBRANCH 187 188
ENDBRANCH  77 187
ENDBRANCH  75  77
ENDBRANCH  72  73
BRANCH  72 192
ATOM    192  CB  THR B  42     -39.229  52.231   6.186  0.00  0.00    +0.141 C 
ATOM    193  CG2 THR B  42     -38.778  52.812   4.863  0.00  0.00    +0.040 C 
BRANCH 192 194
ATOM    194  OG1 THR B  42     -40.137  53.143   6.806  0.00  0.00    -0.390 OA
ATOM    195  H   THR B  42     -40.907  53.274   6.231  0.00  0.00    +0.210 HD
ENDBRANCH 192 194
ENDBRANCH  72 192
ENDBRANCH  70  72
ENDBRANCH  67  68
BRANCH  67 196
ATOM    196  CB  ILE B  41     -42.245  48.977   9.412  0.00  0.00    +0.015 C 
ATOM    197  CG2 ILE B  41     -43.464  48.907   8.506  0.00  0.00    +0.010 C 
BRANCH 196 198
ATOM    198  CG1 ILE B  41     -42.502  48.185  10.702  0.00  0.00    +0.002 C 
ATOM    199  CD1 ILE B  41     -42.710  46.673  10.483  0.00  0.00    +0.004 C 
ENDBRANCH 196 198
ENDBRANCH  67 196
ENDBRANCH  65  67
ENDBRANCH  62  63
BRANCH  62 200
ATOM    200  CB  TYR B  40     -37.496  47.289  11.110  0.00  0.00    +0.067 C 
BRANCH 200 201
ATOM    201  CG  TYR B  40     -36.199  47.033  11.860  0.00  0.00    -0.045 A 
ATOM    202  CD1 TYR B  40     -34.964  47.226  11.260  0.00  0.00    +0.007 A 
ATOM    203  CD2 TYR B  40     -36.221  46.585  13.178  0.00  0.00    +0.007 A 
ATOM    204  CE1 TYR B  40     -33.784  46.977  11.955  0.00  0.00    +0.045 A 
ATOM    205  CE2 TYR B  40     -35.050  46.334  13.878  0.00  0.00    +0.045 A 
ATOM    206  CZ  TYR B  40     -33.831  46.535  13.262  0.00  0.00    +0.117 A 
BRANCH 206 207
ATOM    207  OH  TYR B  40     -32.654  46.290  13.949  0.00  0.00    -0.507 OA
ATOM    208  H   TYR B  40     -31.828  46.427  13.528  0.00  0.00    +0.292 HD
ENDBRANCH 206 207
ENDBRANCH 200 201
ENDBRANCH  62 200
ENDBRANCH  60  62
ENDBRANCH  57  58
BRANCH  57 209
ATOM    209  CB  THR B  39     -35.918  52.460  10.710  0.00  0.00    +0.141 C 
ATOM    210  CG2 THR B  39     -34.820  52.387   9.666  0.00  0.00    +0.040 C 
BRANCH 209 211
ATOM    211  OG1 THR B  39     -36.000  53.809  11.214  0.00  0.00    -0.390 OA
ATOM    212  H   THR B  39     -36.209  54.414  10.485  0.00  0.00    +0.210 HD
ENDBRANCH 209 211
ENDBRANCH  57 209
ENDBRANCH  55  57
ENDBRANCH  51  53
ENDBRANCH  49  51
ENDBRANCH  46  47
BRANCH  46 213
ATOM    213  CB  THR B  37     -40.750  49.795  15.421  0.00  0.00    +0.141 C 
ATOM    214  CG2 THR B  37     -41.933  49.076  14.763  0.00  0.00    +0.040 C 
BRANCH 213 215
ATOM    215  OG1 THR B  37     -40.413  49.150  16.654  0.00  0.00    -0.390 OA
ATOM    216  H   THR B  37     -40.153  48.232  16.478  0.00  0.00    +0.210 HD
ENDBRANCH 213 215
ENDBRANCH  46 213
ENDBRANCH  44  46
ENDBRANCH  41  42
BRANCH  41 217
ATOM    217  CB  ARG B  36     -35.559  50.744  16.318  0.00  0.00    +0.035 C 
BRANCH 217 218
ATOM    218  CG  ARG B  36     -34.870  49.488  15.806  0.00  0.00    +0.039 C 
BRANCH 218 219
ATOM    219  CD  ARG B  36     -34.379  48.635  16.941  0.00  0.00    +0.196 C 
BRANCH 219 220
ATOM    220  NE  ARG B  36     -33.055  49.052  17.377  0.00  0.00    -0.279 N 
ATOM    221  CZ  ARG B  36     -31.975  48.282  17.345  0.00  0.00    +0.341 C 
ATOM    222  NH1 ARG B  36     -32.017  47.042  16.872  0.00  0.00    -0.292 N 
ATOM    223  NH2 ARG B  36     -30.822  48.769  17.794  0.00  0.00    -0.292 N 
ATOM    224  H   ARG B  36     -32.953  49.969  17.720  0.00  0.00    +0.258 HD
ATOM    225  H   ARG B  36     -32.865  46.671  16.537  0.00  0.00    +0.255 HD
ATOM    226  H   ARG B  36     -31.200  46.493  16.856  0.00  0.00    +0.255 HD
ATOM    227  H   ARG B  36     -30.012  48.210  17.777  0.00  0.00    +0.255 HD
ATOM    228  H   ARG B  36     -30.779  49.688  18.143  0.00  0.00    +0.255 HD
ENDBRANCH 219 220
ENDBRANCH 218 219
ENDBRANCH 217 218
ENDBRANCH  41 217
ENDBRANCH  39  41
ENDBRANCH  36  37
BRANCH  36 229
ATOM    229  CB  GLN B  35     -36.699  55.878  15.888  0.00  0.00    +0.041 C 
BRANCH 229 230
ATOM    230  CG  GLN B  35     -35.486  55.877  14.939  0.00  0.00    +0.098 C 
BRANCH 230 231
ATOM    231  CD  GLN B  35     -34.497  57.006  15.213  0.00  0.00    +0.211 C 
ATOM    232  OE1 GLN B  35     -34.712  57.844  16.091  0.00  0.00    -0.276 OA
ATOM    233  NE2 GLN B  35     -33.406  57.030  14.456  0.00  0.00    -0.329 N 
ATOM    234  H   GLN B  35     -33.271  56.342  13.765  0.00  0.00    +0.145 HD
ATOM    235  H   GLN B  35     -32.732  57.736  14.586  0.00  0.00    +0.145 HD
ENDBRANCH 230 231
ENDBRANCH 229 230
ENDBRANCH  36 229
ENDBRANCH  34  36
ENDBRANCH  31  32
BRANCH  31 236
ATOM    236  CB  GLU B  34     -41.677  54.837  17.853  0.00  0.00    +0.037 C 
BRANCH 236 237
ATOM    237  CG  GLU B  34     -42.727  54.510  18.897  0.00  0.00    +0.054 C 
BRANCH 237 238
ATOM    238  CD  GLU B  34     -43.857  55.518  18.905  0.00  0.00    +0.042 C 
ATOM    239  OE2 GLU B  34     -43.600  56.687  19.254  0.00  0.00    -0.550 OA
ATOM    240  OE1 GLU B  34     -44.996  55.145  18.553  0.00  0.00    -0.550 OA
ENDBRANCH 237 238
ENDBRANCH 236 237
ENDBRANCH  31 236
ENDBRANCH  29  31
ENDBRANCH  26  27
BRANCH  26 241
ATOM    241  CB  ASP B  33     -37.676  53.149  20.659  0.00  0.00    +0.083 C 
BRANCH 241 242
ATOM    242  CG  ASP B  33     -36.509  53.451  19.734  0.00  0.00    +0.044 C 
ATOM    243  OD1 ASP B  33     -36.581  53.202  18.511  0.00  0.00    -0.550 OA
ATOM    244  OD2 ASP B  33     -35.513  54.007  20.240  0.00  0.00    -0.550 OA
ENDBRANCH 241 242
ENDBRANCH  26 241
ENDBRANCH  24  26
ENDBRANCH  21  22
BRANCH  21 245
ATOM    245  CB  PHE B  32     -37.756  47.950  18.420  0.00  0.00    +0.067 C 
BRANCH 245 246
ATOM    246  CG  PHE B  32     -37.010  46.683  18.081  0.00  0.00    -0.045 A 
ATOM    247  CD2 PHE B  32     -35.926  46.269  18.834  0.00  0.00    +0.004 A 
ATOM    248  CD1 PHE B  32     -37.399  45.913  16.996  0.00  0.00    +0.004 A 
ATOM    249  CE2 PHE B  32     -35.232  45.107  18.504  0.00  0.00    +0.000 A 
ATOM    250  CE1 PHE B  32     -36.707  44.744  16.665  0.00  0.00    +0.000 A 
ATOM    251  CZ  PHE B  32     -35.627  44.358  17.421  0.00  0.00    +0.000 A 
ENDBRANCH 245 246
ENDBRANCH  21 245
ENDBRANCH  19  21
ENDBRANCH  16  17
BRANCH  16 252
ATOM    252  CB  LYS B  31     -40.076  46.082  22.977  0.00  0.00    +0.032 C 
BRANCH 252 253
ATOM    253  CG  LYS B  31     -40.001  46.895  24.236  0.00  0.00    +0.007 C 
BRANCH 253 254
ATOM    254  CD  LYS B  31     -41.351  46.931  24.962  0.00  0.00    +0.051 C 
BRANCH 254 255
ATOM    255  CE  LYS B  31     -41.219  47.676  26.274  0.00  0.00    +0.127 C 
BRANCH 255 256
ATOM    256  NZ  LYS B  31     -42.449  48.438  26.612  0.00  0.00    +0.219 N 
ATOM    257  H   LYS B  31     -42.627  49.135  25.889  0.00  0.00    +0.199 HD
ATOM    258  H   LYS B  31     -42.324  48.905  27.510  0.00  0.00    +0.199 HD
ATOM    259  H   LYS B  31     -43.241  47.798  26.669  0.00  0.00    +0.199 HD
ENDBRANCH 255 256
ENDBRANCH 254 255
ENDBRANCH 253 254
ENDBRANCH 252 253
ENDBRANCH  16 252
ENDBRANCH  14  16
ENDBRANCH  11  12
BRANCH  11 260
ATOM    260  CB  SER B  30     -37.158  43.546  26.068  0.00  0.00    +0.187 C 
BRANCH 260 261
ATOM    261  OG  SER B  30     -36.721  42.572  26.992  0.00  0.00    -0.393 OA
ATOM    262  H   SER B  30     -37.222  41.752  26.859  0.00  0.00    +0.209 HD
ENDBRANCH 260 261
ENDBRANCH  11 260
ENDBRANCH   9  11
ENDBRANCH   6   7
BRANCH   6 263
ATOM    263  CB  LEU B  29     -33.607  45.566  22.452  0.00  0.00    +0.034 C 
BRANCH 263 264
ATOM    264  CG  LEU B  29     -32.228  45.764  21.814  0.00  0.00    -0.015 C 
ATOM    265  CD1 LEU B  29     -32.336  46.567  20.533  0.00  0.00    +0.007 C 
ATOM    266  CD2 LEU B  29     -31.301  46.438  22.801  0.00  0.00    +0.007 C 
ENDBRANCH 263 264
ENDBRANCH   6 263
ENDBRANCH   4   6
ENDBRANCH   1   2
BRANCH   1 269
ATOM    267  C   GLN B  27     -33.426  39.927  23.387  0.00  0.00    +0.234 C 
ATOM    268  O   GLN B  27     -33.653  40.011  24.600  0.00  0.00    -0.274 OA
ATOM    269  N   LYS B  28     -32.452  40.614  22.792  0.00  0.00    -0.302 N 
ATOM    270  H   LYS B  28     -32.374  40.575  21.811  0.00  0.00    +0.150 HD
BRANCH 267 271
ATOM    271  CA  GLN B  27     -34.294  39.059  22.485  0.00  0.00    +0.159 C 
BRANCH 271 274
ATOM    272  C   LEU B  26     -35.212  40.908  21.211  0.00  0.00    +0.234 C 
ATOM    273  O   LEU B  26     -35.650  41.434  22.244  0.00  0.00    -0.274 OA
ATOM    274  N   GLN B  27     -34.565  39.743  21.226  0.00  0.00    -0.302 N 
ATOM    275  H   GLN B  27     -34.267  39.340  20.379  0.00  0.00    +0.150 HD
BRANCH 272 276
ATOM    276  CA  LEU B  26     -35.376  41.584  19.858  0.00  0.00    +0.159 C 
BRANCH 276 279
ATOM    277  C   GLU B  25     -33.018  42.021  19.451  0.00  0.00    +0.234 C 
ATOM    278  O   GLU B  25     -32.935  42.689  20.486  0.00  0.00    -0.274 OA
ATOM    279  N   LEU B  26     -34.162  41.454  19.059  0.00  0.00    -0.302 N 
ATOM    280  H   LEU B  26     -34.187  40.941  18.219  0.00  0.00    +0.150 HD
BRANCH 277 281
ATOM    281  CA  GLU B  25     -31.805  41.831  18.551  0.00  0.00    +0.159 C 
BRANCH 281 284
ATOM    282  C   UNK B  24     -31.644  39.440  18.961  0.00  0.00    +0.234 C 
ATOM    283  O   UNK B  24     -31.604  39.636  20.188  0.00  0.00    -0.274 OA
ATOM    284  N   GLU B  25     -31.692  40.449  18.086  0.00  0.00    -0.302 N 
ATOM    285  H   GLU B  25     -31.651  40.260  17.121  0.00  0.00    +0.150 HD
BRANCH 282 286
ATOM    286  C   UNK B  24     -31.617  38.016  18.399  0.00  0.00    +0.159 C 
BRANCH 286 289
ATOM    287  C   TYR B  23     -33.893  37.925  17.534  0.00  0.00    +0.234 C 
ATOM    288  O   TYR B  23     -34.351  38.115  18.671  0.00  0.00    -0.274 OA
ATOM    289  N   UNK B  24     -32.575  37.844  17.301  0.00  0.00    -0.302 N 
ATOM    290  H   UNK B  24     -32.249  37.668  16.389  0.00  0.00    +0.150 HD
BRANCH 287 291
ATOM    291  CA  TYR B  23     -34.816  37.760  16.331  0.00  0.00    +0.163 C 
BRANCH 291 294
ATOM    292  C   VAL B  22     -34.197  39.928  15.391  0.00  0.00    +0.234 C 
ATOM    293  O   VAL B  22     -34.405  40.498  16.473  0.00  0.00    -0.274 OA
ATOM    294  N   TYR B  23     -34.389  38.615  15.229  0.00  0.00    -0.302 N 
ATOM    295  H   TYR B  23     -34.238  38.214  14.342  0.00  0.00    +0.150 HD
BRANCH 292 296
ATOM    296  CA  VAL B  22     -33.692  40.702  14.181  0.00  0.00    +0.161 C 
BRANCH 296 299
ATOM    297  C   THR B  21     -31.700  39.355  13.885  0.00  0.00    +0.236 C 
ATOM    298  O   THR B  21     -31.230  39.742  14.960  0.00  0.00    -0.274 OA
ATOM    299  N   VAL B  22     -32.835  39.839  13.374  0.00  0.00    -0.302 N 
ATOM    300  H   VAL B  22     -33.094  39.613  12.451  0.00  0.00    +0.150 HD
BRANCH 297 301
ATOM    301  CA  THR B  21     -31.048  38.238  13.076  0.00  0.00    +0.187 C 
BRANCH 301 304
ATOM    302  C   GLY B  20     -28.755  38.896  12.545  0.00  0.00    +0.231 C 
ATOM    303  O   GLY B  20     -29.125  39.726  11.709  0.00  0.00    -0.274 OA
ATOM    304  N   THR B  21     -29.605  38.167  13.269  0.00  0.00    -0.301 N 
ATOM    305  H   THR B  21     -29.246  37.561  13.957  0.00  0.00    +0.150 HD
BRANCH 302 306
ATOM    306  CA  GLY B  20     -27.284  38.633  12.833  0.00  0.00    +0.200 C 
BRANCH 306 309
ATOM    307  C   LEU B  19     -26.304  40.828  12.960  0.00  0.00    +0.234 C 
ATOM    308  O   LEU B  19     -27.065  41.140  13.885  0.00  0.00    -0.274 OA
ATOM    309  N   GLY B  20     -26.399  39.662  12.328  0.00  0.00    -0.305 N 
ATOM    310  H   GLY B  20     -25.867  39.498  11.516  0.00  0.00    +0.149 HD
BRANCH 307 311
ATOM    311  CA  LEU B  19     -25.218  41.803  12.516  0.00  0.00    +0.159 C 
BRANCH 311 314
ATOM    312  C   PRO B  18     -23.487  40.700  11.245  0.00  0.00    +0.234 C 
ATOM    313  O   PRO B  18     -22.989  40.259  12.287  0.00  0.00    -0.274 OA
ATOM    314  N   LEU B  19     -24.602  41.424  11.252  0.00  0.00    -0.302 N 
ATOM    315  H   LEU B  19     -25.012  41.704  10.402  0.00  0.00    +0.150 HD
BRANCH 312 319
ATOM    316  C   ALA B  17     -24.584  39.541   8.575  0.00  0.00    +0.236 C 
ATOM    317  O   ALA B  17     -24.893  38.767   9.494  0.00  0.00    -0.274 OA
ATOM    318  N   PRO B  18     -23.647  40.480   8.746  0.00  0.00    -0.288 N 
ATOM    319  CA  PRO B  18     -22.776  40.446   9.935  0.00  0.00    +0.162 C 
ATOM    320  CB  PRO B  18     -21.742  41.548   9.663  0.00  0.00    +0.033 C 
ATOM    321  CG  PRO B  18     -21.937  41.980   8.260  0.00  0.00    +0.021 C 
ATOM    322  CD  PRO B  18     -23.237  41.483   7.750  0.00  0.00    +0.109 C 
BRANCH 316 323
ATOM    323  CA  ALA B  17     -25.270  39.427   7.221  0.00  0.00    +0.156 C 
ATOM    324  CB  ALA B  17     -26.768  39.153   7.402  0.00  0.00    +0.038 C 
BRANCH 323 327
ATOM    325  C   TYR B  16     -23.843  38.567   5.413  0.00  0.00    +0.234 C 
ATOM    326  O   TYR B  16     -23.646  39.691   4.943  0.00  0.00    -0.274 OA
ATOM    327  N   ALA B  17     -24.633  38.354   6.462  0.00  0.00    -0.303 N 
ATOM    328  H   ALA B  17     -24.797  37.424   6.741  0.00  0.00    +0.149 HD
BRANCH 325 329
ATOM    329  CA  TYR B  16     -23.158  37.339   4.811  0.00  0.00    +0.163 C 
BRANCH 329 332
ATOM    330  C   GLU B  15     -24.458  37.010   2.778  0.00  0.00    +0.234 C 
ATOM    331  O   GLU B  15     -25.422  36.568   3.406  0.00  0.00    -0.274 OA
ATOM    332  N   TYR B  16     -23.305  37.341   3.358  0.00  0.00    -0.302 N 
ATOM    333  H   TYR B  16     -22.537  37.592   2.796  0.00  0.00    +0.150 HD
BRANCH 330 334
ATOM    334  CA  GLU B  15     -24.532  37.180   1.266  0.00  0.00    +0.159 C 
BRANCH 334 337
ATOM    335  C   LEU B  14     -24.496  34.781   0.868  0.00  0.00    +0.234 C 
ATOM    336  O   LEU B  14     -23.347  34.643   1.298  0.00  0.00    -0.274 OA
ATOM    337  N   GLU B  15     -25.065  35.968   0.661  0.00  0.00    -0.302 N 
ATOM    338  H   GLU B  15     -25.863  36.027   0.087  0.00  0.00    +0.150 HD
BRANCH 335 339
ATOM    339  CA  LEU B  14     -25.369  33.577   0.534  0.00  0.00    +0.159 C 
BRANCH 339 342
ATOM    340  C   ILE B  13     -24.602  31.847  -1.035  0.00  0.00    +0.234 C 
ATOM    341  O   ILE B  13     -25.219  32.334  -1.989  0.00  0.00    -0.274 OA
ATOM    342  N   LEU B  14     -24.558  32.420   0.175  0.00  0.00    -0.302 N 
ATOM    343  H   LEU B  14     -23.951  32.043   0.852  0.00  0.00    +0.150 HD
BRANCH 340 344
ATOM    344  CA  ILE B  13     -23.836  30.540  -1.206  0.00  0.00    +0.162 C 
BRANCH 344 347
ATOM    345  C   LEU B  12     -25.339  28.754  -0.436  0.00  0.00    +0.234 C 
ATOM    346  O   LEU B  12     -25.066  28.929   0.757  0.00  0.00    -0.274 OA
ATOM    347  N   ILE B  13     -24.826  29.487  -1.423  0.00  0.00    -0.302 N 
ATOM    348  H   ILE B  13     -25.128  29.311  -2.343  0.00  0.00    +0.150 HD
BRANCH 345 349
ATOM    349  CA  LEU B  12     -26.356  27.696  -0.837  0.00  0.00    +0.159 C 
BRANCH 349 352
ATOM    350  C   TYR B  11     -25.438  25.427  -1.013  0.00  0.00    +0.234 C 
ATOM    351  O   TYR B  11     -25.350  25.470  -2.245  0.00  0.00    -0.274 OA
ATOM    352  N   LEU B  12     -25.979  26.401  -0.282  0.00  0.00    -0.302 N 
ATOM    353  H   LEU B  12     -26.131  26.239   0.677  0.00  0.00    +0.150 HD
BRANCH 350 354
ATOM    354  CA  TYR B  11     -24.880  24.231  -0.251  0.00  0.00    +0.163 C 
BRANCH 354 357
ATOM    355  C   VAL B  10     -26.077  22.111  -0.056  0.00  0.00    +0.234 C 
ATOM    356  O   VAL B  10     -26.278  22.287   1.146  0.00  0.00    -0.274 OA
ATOM    357  N   TYR B  11     -25.402  22.981  -0.803  0.00  0.00    -0.302 N 
ATOM    358  H   TYR B  11     -25.250  22.778  -1.754  0.00  0.00    +0.150 HD
BRANCH 355 359
ATOM    359  CA  VAL B  10     -26.644  20.883  -0.746  0.00  0.00    +0.161 C 
BRANCH 359 362
ATOM    360  C   ARG B   9     -25.526  18.810   0.039  0.00  0.00    +0.234 C 
ATOM    361  O   ARG B   9     -24.881  18.610  -0.996  0.00  0.00    -0.274 OA
ATOM    362  N   VAL B  10     -26.467  19.764   0.172  0.00  0.00    -0.302 N 
ATOM    363  H   VAL B  10     -27.077  19.702   0.942  0.00  0.00    +0.150 HD
BRANCH 360 364
ATOM    364  CA  ARG B   9     -25.313  17.955   1.278  0.00  0.00    +0.159 C 
BRANCH 364 367
ATOM    365  C   THR B   8     -25.312  15.549   1.507  0.00  0.00    +0.236 C 
ATOM    366  O   THR B   8     -26.305  15.597   2.245  0.00  0.00    -0.274 OA
ATOM    367  N   ARG B   9     -24.800  16.638   0.936  0.00  0.00    -0.302 N 
ATOM    368  H   ARG B   9     -24.071  16.551   0.280  0.00  0.00    +0.150 HD
BRANCH 365 369
ATOM    369  CA  THR B   8     -24.656  14.202   1.252  0.00  0.00    +0.187 C 
BRANCH 369 372
ATOM    370  C   ALA B   7     -23.882  13.336  -0.887  0.00  0.00    +0.234 C 
ATOM    371  O   ALA B   7     -24.905  12.657  -1.027  0.00  0.00    -0.274 OA
ATOM    372  N   THR B   8     -23.731  14.186   0.130  0.00  0.00    -0.300 N 
ATOM    373  H   THR B   8     -22.976  14.817   0.121  0.00  0.00    +0.150 HD
BRANCH 370 374
ATOM    374  CA  ALA B   7     -22.752  13.230  -1.905  0.00  0.00    +0.156 C 
ATOM    375  CB  ALA B   7     -21.748  12.153  -1.481  0.00  0.00    +0.038 C 
BRANCH 374 378
ATOM    376  C   ASP B   6     -22.730  15.575  -2.520  0.00  0.00    +0.234 C 
ATOM    377  O   ASP B   6     -23.958  15.582  -2.688  0.00  0.00    -0.274 OA
ATOM    378  N   ALA B   7     -22.064  14.503  -2.090  0.00  0.00    -0.303 N 
ATOM    379  H   ALA B   7     -21.101  14.571  -1.896  0.00  0.00    +0.149 HD
BRANCH 376 380
ATOM    380  CA  ASP B   6     -21.898  16.817  -2.816  0.00  0.00    +0.164 C 
BRANCH 380 383
ATOM    381  C   HIS B   5     -22.863  18.781  -3.845  0.00  0.00    +0.234 C 
ATOM    382  O   HIS B   5     -22.178  18.646  -4.860  0.00  0.00    -0.274 OA
ATOM    383  N   ASP B   6     -22.738  18.009  -2.766  0.00  0.00    -0.302 N 
ATOM    384  H   ASP B   6     -23.212  18.243  -1.936  0.00  0.00    +0.150 HD
BRANCH 381 385
ATOM    385  CA  HIS B   5     -23.927  19.857  -3.766  0.00  0.00    +0.165 C 
BRANCH 385 388
ATOM    386  C   PHE B   4     -24.010  22.177  -4.353  0.00  0.00    +0.234 C 
ATOM    387  O   PHE B   4     -24.729  22.404  -3.375  0.00  0.00    -0.274 OA
ATOM    388  N   HIS B   5     -23.574  20.956  -4.651  0.00  0.00    -0.302 N 
ATOM    389  H   HIS B   5     -23.025  20.800  -5.453  0.00  0.00    +0.150 HD
BRANCH 386 390
ATOM    390  CA  PHE B   4     -23.611  23.291  -5.313  0.00  0.00    +0.163 C 
BRANCH 390 393
ATOM    391  C   TYR B   3     -24.424  25.576  -5.656  0.00  0.00    +0.234 C 
ATOM    392  O   TYR B   3     -23.884  25.684  -6.761  0.00  0.00    -0.274 OA
ATOM    393  N   PHE B   4     -24.276  24.513  -4.871  0.00  0.00    -0.302 N 
ATOM    394  H   PHE B   4     -24.630  24.552  -3.953  0.00  0.00    +0.150 HD
BRANCH 391 395
ATOM    395  CA  TYR B   3     -25.253  26.709  -5.070  0.00  0.00    +0.163 C 
BRANCH 395 398
ATOM    396  C   GLY B   2     -25.243  29.122  -5.284  0.00  0.00    +0.231 C 
ATOM    397  O   GLY B   2     -25.723  29.275  -4.158  0.00  0.00    -0.274 OA
ATOM    398  N   TYR B   3     -24.939  27.931  -5.799  0.00  0.00    -0.302 N 
ATOM    399  H   TYR B   3     -24.499  27.876  -6.678  0.00  0.00    +0.150 HD
BRANCH 396 400
ATOM    400  CA  GLY B   2     -24.957  30.306  -6.179  0.00  0.00    +0.200 C 
BRANCH 400 403
ATOM    401  C   TYR B   1     -24.920  32.707  -6.056  0.00  0.00    +0.234 C 
ATOM    402  O   TYR B   1     -24.538  32.776  -7.227  0.00  0.00    -0.274 OA
ATOM    403  N   GLY B   2     -25.207  31.551  -5.475  0.00  0.00    -0.305 N 
ATOM    404  H   GLY B   2     -25.589  31.536  -4.568  0.00  0.00    +0.149 HD
BRANCH 401 405
ATOM    405  CA  TYR B   1     -25.031  33.976  -5.238  0.00  0.00    +0.163 C 
BRANCH 405 409
ATOM    406  C   UNK B   0     -28.153  34.219  -3.088  0.00  0.00    +0.109 C 
ATOM    407  C   UNK B   0     -27.277  34.171  -4.330  0.00  0.00    +0.211 C 
ATOM    408  O   UNK B   0     -27.762  34.396  -5.442  0.00  0.00    -0.276 OA
ATOM    409  N   TYR B   1     -25.984  33.894  -4.140  0.00  0.00    -0.304 N 
ATOM    410  H   TYR B   1     -25.671  33.631  -3.245  0.00  0.00    +0.149 HD
ENDBRANCH 405 409
BRANCH 405 411
ATOM    411  CB  TYR B   1     -23.650  34.327  -4.704  0.00  0.00    +0.067 C 
BRANCH 411 412
ATOM    412  CG  TYR B   1     -23.582  35.676  -4.079  0.00  0.00    -0.045 A 
ATOM    413  CD1 TYR B   1     -23.818  36.820  -4.831  0.00  0.00    +0.007 A 
ATOM    414  CD2 TYR B   1     -23.302  35.821  -2.731  0.00  0.00    +0.007 A 
ATOM    415  CE1 TYR B   1     -23.749  38.064  -4.263  0.00  0.00    +0.045 A 
ATOM    416  CE2 TYR B   1     -23.238  37.072  -2.150  0.00  0.00    +0.045 A 
ATOM    417  CZ  TYR B   1     -23.461  38.185  -2.918  0.00  0.00    +0.117 A 
BRANCH 417 418
ATOM    418  OH  TYR B   1     -23.389  39.433  -2.345  0.00  0.00    -0.507 OA
ATOM    419  H   TYR B   1     -23.541  40.197  -2.866  0.00  0.00    +0.292 HD
ENDBRANCH 417 418
ENDBRANCH 411 412
ENDBRANCH 405 411
ENDBRANCH 401 405
ENDBRANCH 400 403
ENDBRANCH 396 400
ENDBRANCH 395 398
BRANCH 395 420
ATOM    420  CB  TYR B   3     -26.769  26.394  -5.111  0.00  0.00    +0.067 C 
BRANCH 420 421
ATOM    421  CG  TYR B   3     -27.282  26.325  -6.540  0.00  0.00    -0.045 A 
ATOM    422  CD1 TYR B   3     -27.148  25.163  -7.286  0.00  0.00    +0.007 A 
ATOM    423  CD2 TYR B   3     -27.832  27.442  -7.159  0.00  0.00    +0.007 A 
ATOM    424  CE1 TYR B   3     -27.572  25.099  -8.609  0.00  0.00    +0.045 A 
ATOM    425  CE2 TYR B   3     -28.272  27.385  -8.489  0.00  0.00    +0.045 A 
ATOM    426  CZ  TYR B   3     -28.137  26.213  -9.199  0.00  0.00    +0.117 A 
BRANCH 426 427
ATOM    427  OH  TYR B   3     -28.552  26.141 -10.512  0.00  0.00    -0.507 OA
ATOM    428  H   TYR B   3     -28.458  25.341 -10.990  0.00  0.00    +0.292 HD
ENDBRANCH 426 427
ENDBRANCH 420 421
ENDBRANCH 395 420
ENDBRANCH 391 395
ENDBRANCH 390 393
BRANCH 390 429
ATOM    429  CB  PHE B   4     -22.088  23.472  -5.411  0.00  0.00    +0.067 C 
BRANCH 429 430
ATOM    430  CG  PHE B   4     -21.416  23.919  -4.127  0.00  0.00    -0.045 A 
ATOM    431  CD1 PHE B   4     -21.384  25.257  -3.767  0.00  0.00    +0.004 A 
ATOM    432  CD2 PHE B   4     -20.780  23.001  -3.308  0.00  0.00    +0.004 A 
ATOM    433  CE1 PHE B   4     -20.740  25.669  -2.602  0.00  0.00    +0.000 A 
ATOM    434  CE2 PHE B   4     -20.134  23.401  -2.142  0.00  0.00    +0.000 A 
ATOM    435  CZ  PHE B   4     -20.121  24.736  -1.785  0.00  0.00    +0.000 A 
ENDBRANCH 429 430
ENDBRANCH 390 429
ENDBRANCH 386 390
ENDBRANCH 385 388
BRANCH 385 436
ATOM    436  CB  HIS B   5     -25.284  19.254  -4.118  0.00  0.00    +0.086 C 
BRANCH 436 437
ATOM    437  CG  HIS B   5     -25.305  18.569  -5.450  0.00  0.00    +0.038 A 
ATOM    438  ND1 HIS B   5     -25.107  17.212  -5.597  0.00  0.00    -0.348 N 
ATOM    439  CD2 HIS B   5     -25.519  19.055  -6.695  0.00  0.00    +0.133 A 
ATOM    440  CE1 HIS B   5     -25.190  16.892  -6.877  0.00  0.00    +0.196 A 
ATOM    441  NE2 HIS B   5     -25.432  17.992  -7.567  0.00  0.00    -0.244 NA
ATOM    442  H   HIS B   5     -24.931  16.580  -4.863  0.00  0.00    +0.166 HD
ENDBRANCH 436 437
ENDBRANCH 385 436
ENDBRANCH 381 385
ENDBRANCH 380 383
BRANCH 380 443
ATOM    443  CB  ASP B   6     -20.696  16.932  -1.862  0.00  0.00    +0.083 C 
BRANCH 443 444
ATOM    444  CG  ASP B   6     -21.086  17.145  -0.399  0.00  0.00    +0.044 C 
ATOM    445  OD1 ASP B   6     -22.167  16.689   0.036  0.00  0.00    -0.550 OA
ATOM    446  OD2 ASP B   6     -20.280  17.769   0.331  0.00  0.00    -0.550 OA
ENDBRANCH 443 444
ENDBRANCH 380 443
ENDBRANCH 376 380
ENDBRANCH 374 378
ENDBRANCH 370 374
ENDBRANCH 369 372
BRANCH 369 447
ATOM    447  CB  THR B   8     -23.940  13.767   2.541  0.00  0.00    +0.141 C 
ATOM    448  CG2 THR B   8     -23.349  12.376   2.390  0.00  0.00    +0.040 C 
BRANCH 447 449
ATOM    449  OG1 THR B   8     -22.883  14.686   2.813  0.00  0.00    -0.390 OA
ATOM    450  H   THR B   8     -22.252  14.680   2.076  0.00  0.00    +0.210 HD
ENDBRANCH 447 449
ENDBRANCH 369 447
ENDBRANCH 365 369
ENDBRANCH 364 367
BRANCH 364 451
ATOM    451  CB  ARG B   9     -24.385  18.706   2.250  0.00  0.00    +0.035 C 
BRANCH 451 452
ATOM    452  CG  ARG B   9     -24.225  18.040   3.615  0.00  0.00    +0.039 C 
BRANCH 452 453
ATOM    453  CD  ARG B   9     -22.912  18.423   4.259  0.00  0.00    +0.196 C 
BRANCH 453 454
ATOM    454  NE  ARG B   9     -21.810  17.796   3.551  0.00  0.00    -0.279 N 
ATOM    455  CZ  ARG B   9     -20.756  17.260   4.144  0.00  0.00    +0.341 C 
ATOM    456  NH2 ARG B   9     -20.617  17.291   5.462  0.00  0.00    -0.292 N 
ATOM    457  NH1 ARG B   9     -19.822  16.676   3.397  0.00  0.00    -0.292 N 
ATOM    458  H   ARG B   9     -21.850  17.768   2.568  0.00  0.00    +0.258 HD
ATOM    459  H   ARG B   9     -19.825  16.886   5.883  0.00  0.00    +0.255 HD
ATOM    460  H   ARG B   9     -21.306  17.719   6.020  0.00  0.00    +0.255 HD
ATOM    461  H   ARG B   9     -19.920  16.650   2.418  0.00  0.00    +0.255 HD
ATOM    462  H   ARG B   9     -19.033  16.270   3.824  0.00  0.00    +0.255 HD
ENDBRANCH 453 454
ENDBRANCH 452 453
ENDBRANCH 451 452
ENDBRANCH 364 451
ENDBRANCH 360 364
ENDBRANCH 359 362
BRANCH 359 463
ATOM    463  CB  VAL B  10     -28.137  21.104  -1.089  0.00  0.00    +0.012 C 
ATOM    464  CG1 VAL B  10     -28.310  22.344  -1.958  0.00  0.00    +0.009 C 
ATOM    465  CG2 VAL B  10     -28.753  19.860  -1.730  0.00  0.00    +0.009 C 
ENDBRANCH 359 463
ENDBRANCH 355 359
ENDBRANCH 354 357
BRANCH 354 466
ATOM    466  CB  TYR B  11     -23.351  24.271  -0.318  0.00  0.00    +0.067 C 
BRANCH 466 467
ATOM    467  CG  TYR B  11     -22.654  23.066   0.260  0.00  0.00    -0.045 A 
ATOM    468  CD1 TYR B  11     -22.568  21.879  -0.456  0.00  0.00    +0.007 A 
ATOM    469  CD2 TYR B  11     -22.054  23.122   1.518  0.00  0.00    +0.007 A 
ATOM    470  CE1 TYR B  11     -21.913  20.771   0.063  0.00  0.00    +0.045 A 
ATOM    471  CE2 TYR B  11     -21.397  22.010   2.050  0.00  0.00    +0.045 A 
ATOM    472  CZ  TYR B  11     -21.331  20.842   1.314  0.00  0.00    +0.117 A 
BRANCH 472 473
ATOM    473  OH  TYR B  11     -20.681  19.732   1.817  0.00  0.00    -0.507 OA
ATOM    474  H   TYR B  11     -20.641  18.944   1.312  0.00  0.00    +0.292 HD
ENDBRANCH 472 473
ENDBRANCH 466 467
ENDBRANCH 354 466
ENDBRANCH 350 354
ENDBRANCH 349 352
BRANCH 349 475
ATOM    475  CB  LEU B  12     -27.739  28.130  -0.343  0.00  0.00    +0.034 C 
BRANCH 475 476
ATOM    476  CG  LEU B  12     -28.892  27.136  -0.493  0.00  0.00    -0.015 C 
ATOM    477  CD2 LEU B  12     -30.240  27.803  -0.230  0.00  0.00    +0.007 C 
ATOM    478  CD1 LEU B  12     -28.876  26.424  -1.818  0.00  0.00    +0.007 C 
ENDBRANCH 475 476
ENDBRANCH 349 475
ENDBRANCH 345 349
ENDBRANCH 344 347
BRANCH 344 479
ATOM    479  CB  ILE B  13     -22.844  30.636  -2.372  0.00  0.00    +0.015 C 
ATOM    480  CG2 ILE B  13     -21.813  31.727  -2.104  0.00  0.00    +0.010 C 
BRANCH 479 481
ATOM    481  CG1 ILE B  13     -22.159  29.296  -2.636  0.00  0.00    +0.002 C 
ATOM    482  CD1 ILE B  13     -21.667  29.145  -4.054  0.00  0.00    +0.004 C 
ENDBRANCH 479 481
ENDBRANCH 344 479
ENDBRANCH 340 344
ENDBRANCH 339 342
BRANCH 339 483
ATOM    483  CB  LEU B  14     -26.263  33.273   1.749  0.00  0.00    +0.034 C 
BRANCH 483 484
ATOM    484  CG  LEU B  14     -27.218  32.085   1.648  0.00  0.00    -0.015 C 
ATOM    485  CD2 LEU B  14     -27.959  31.892   2.952  0.00  0.00    +0.007 C 
ATOM    486  CD1 LEU B  14     -28.202  32.310   0.519  0.00  0.00    +0.007 C 
ENDBRANCH 483 484
ENDBRANCH 339 483
ENDBRANCH 335 339
ENDBRANCH 334 337
BRANCH 334 487
ATOM    487  CB  GLU B  15     -25.436  38.367   0.911  0.00  0.00    +0.037 C 
BRANCH 487 488
ATOM    488  CG  GLU B  15     -25.174  39.674   1.664  0.00  0.00    +0.054 C 
BRANCH 488 489
ATOM    489  CD  GLU B  15     -26.241  40.729   1.366  0.00  0.00    +0.042 C 
ATOM    490  OE1 GLU B  15     -27.197  40.429   0.596  0.00  0.00    -0.550 OA
ATOM    491  OE2 GLU B  15     -26.131  41.848   1.917  0.00  0.00    -0.550 OA
ENDBRANCH 488 489
ENDBRANCH 487 488
ENDBRANCH 334 487
ENDBRANCH 330 334
ENDBRANCH 329 332
BRANCH 329 492
ATOM    492  CB  TYR B  16     -21.668  37.333   5.175  0.00  0.00    +0.067 C 
BRANCH 492 493
ATOM    493  CG  TYR B  16     -21.348  37.477   6.650  0.00  0.00    -0.045 A 
ATOM    494  CD2 TYR B  16     -22.004  36.712   7.613  0.00  0.00    +0.007 A 
ATOM    495  CD1 TYR B  16     -20.355  38.354   7.074  0.00  0.00    +0.007 A 
ATOM    496  CE2 TYR B  16     -21.671  36.828   8.974  0.00  0.00    +0.045 A 
ATOM    497  CE1 TYR B  16     -20.023  38.481   8.411  0.00  0.00    +0.045 A 
ATOM    498  CZ  TYR B  16     -20.683  37.725   9.354  0.00  0.00    +0.117 A 
BRANCH 498 499
ATOM    499  OH  TYR B  16     -20.337  37.872  10.679  0.00  0.00    -0.507 OA
ATOM    500  H   TYR B  16     -19.668  38.481  10.924  0.00  0.00    +0.292 HD
ENDBRANCH 498 499
ENDBRANCH 492 493
ENDBRANCH 329 492
ENDBRANCH 325 329
ENDBRANCH 323 327
ENDBRANCH 316 323
ENDBRANCH 312 319
ENDBRANCH 311 314
BRANCH 311 501
ATOM    501  CB  LEU B  19     -25.770  43.235  12.435  0.00  0.00    +0.034 C 
BRANCH 501 502
ATOM    502  CG  LEU B  19     -24.817  44.348  12.910  0.00  0.00    -0.015 C 
ATOM    503  CD1 LEU B  19     -23.466  44.237  12.268  0.00  0.00    +0.007 C 
ATOM    504  CD2 LEU B  19     -25.384  45.750  12.667  0.00  0.00    +0.007 C 
ENDBRANCH 501 502
ENDBRANCH 311 501
ENDBRANCH 307 311
ENDBRANCH 306 309
ENDBRANCH 302 306
ENDBRANCH 301 304
BRANCH 301 505
ATOM    505  CB  THR B  21     -31.711  36.922  13.482  0.00  0.00    +0.141 C 
ATOM    506  CG2 THR B  21     -31.180  35.776  12.670  0.00  0.00    +0.040 C 
BRANCH 505 507
ATOM    507  OG1 THR B  21     -31.455  36.691  14.874  0.00  0.00    -0.390 OA
ATOM    508  H   THR B  21     -30.498  36.631  15.021  0.00  0.00    +0.210 HD
ENDBRANCH 505 507
ENDBRANCH 301 505
ENDBRANCH 297 301
ENDBRANCH 296 299
BRANCH 296 509
ATOM    509  CB  VAL B  22     -34.854  41.242  13.323  0.00  0.00    +0.012 C 
ATOM    510  CG2 VAL B  22     -35.826  42.055  14.188  0.00  0.00    +0.009 C 
ATOM    511  CG1 VAL B  22     -34.315  42.057  12.157  0.00  0.00    +0.009 C 
ENDBRANCH 296 509
ENDBRANCH 292 296
ENDBRANCH 291 294
BRANCH 291 512
ATOM    512  CB  TYR B  23     -34.832  36.302  15.849  0.00  0.00    +0.067 C 
BRANCH 512 513
ATOM    513  CG  TYR B  23     -35.194  35.294  16.914  0.00  0.00    -0.045 A 
ATOM    514  CD1 TYR B  23     -36.514  34.949  17.146  0.00  0.00    +0.007 A 
ATOM    515  CD2 TYR B  23     -34.214  34.710  17.703  0.00  0.00    +0.007 A 
ATOM    516  CE1 TYR B  23     -36.850  34.035  18.113  0.00  0.00    +0.045 A 
ATOM    517  CE2 TYR B  23     -34.535  33.800  18.678  0.00  0.00    +0.045 A 
ATOM    518  CZ  TYR B  23     -35.848  33.462  18.879  0.00  0.00    +0.117 A 
BRANCH 518 519
ATOM    519  OH  TYR B  23     -36.161  32.552  19.851  0.00  0.00    -0.507 OA
ATOM    520  H   TYR B  23     -37.055  32.313  19.998  0.00  0.00    +0.292 HD
ENDBRANCH 518 519
ENDBRANCH 512 513
ENDBRANCH 291 512
ENDBRANCH 287 291
ENDBRANCH 286 289
BRANCH 286 521
ATOM    521  C   UNK B  24     -30.211  37.644  17.917  0.00  0.00    +0.028 C 
ATOM    522  C   UNK B  24     -29.197  37.413  19.048  0.00  0.00    +0.006 C 
ENDBRANCH 286 521
ENDBRANCH 282 286
ENDBRANCH 281 284
BRANCH 281 523
ATOM    523  CB  GLU B  25     -31.902  42.787  17.363  0.00  0.00    +0.037 C 
BRANCH 523 524
ATOM    524  CG  GLU B  25     -30.604  43.202  16.719  0.00  0.00    +0.054 C 
BRANCH 524 525
ATOM    525  CD  GLU B  25     -29.634  43.818  17.708  0.00  0.00    +0.042 C 
ATOM    526  OE1 GLU B  25     -29.671  45.062  17.873  0.00  0.00    -0.550 OA
ATOM    527  OE2 GLU B  25     -28.810  43.069  18.281  0.00  0.00    -0.550 OA
ENDBRANCH 524 525
ENDBRANCH 523 524
ENDBRANCH 281 523
ENDBRANCH 277 281
ENDBRANCH 276 279
BRANCH 276 528
ATOM    528  CB  LEU B  26     -36.557  40.984  19.090  0.00  0.00    +0.034 C 
BRANCH 528 529
ATOM    529  CG  LEU B  26     -37.936  41.360  19.619  0.00  0.00    -0.015 C 
ATOM    530  CD2 LEU B  26     -38.108  42.866  19.679  0.00  0.00    +0.007 C 
ATOM    531  CD1 LEU B  26     -39.005  40.713  18.741  0.00  0.00    +0.007 C 
ENDBRANCH 528 529
ENDBRANCH 276 528
ENDBRANCH 272 276
ENDBRANCH 271 274
BRANCH 271 532
ATOM    532  CB  GLN B  27     -33.606  37.725  22.182  0.00  0.00    +0.041 C 
BRANCH 532 533
ATOM    533  CG  GLN B  27     -34.423  36.478  22.458  0.00  0.00    +0.098 C 
BRANCH 533 534
ATOM    534  CD  GLN B  27     -33.633  35.210  22.185  0.00  0.00    +0.211 C 
ATOM    535  OE1 GLN B  27     -32.558  35.246  21.575  0.00  0.00    -0.276 OA
ATOM    536  NE2 GLN B  27     -34.135  34.086  22.679  0.00  0.00    -0.329 N 
ATOM    537  H   GLN B  27     -33.667  33.232  22.534  0.00  0.00    +0.145 HD
ATOM    538  H   GLN B  27     -34.976  34.106  23.191  0.00  0.00    +0.145 HD
ENDBRANCH 533 534
ENDBRANCH 532 533
ENDBRANCH 271 532
ENDBRANCH 267 271
ENDBRANCH   1 269
BRANCH   1 539
ATOM    539  CB  LYS B  28     -30.309  41.735  22.626  0.00  0.00    +0.032 C 
BRANCH 539 540
ATOM    540  CG  LYS B  28     -29.066  42.200  23.315  0.00  0.00    +0.007 C 
BRANCH 540 541
ATOM    541  CD  LYS B  28     -28.514  43.473  22.685  0.00  0.00    +0.051 C 
BRANCH 541 542
ATOM    542  CE  LYS B  28     -27.918  43.176  21.300  0.00  0.00    +0.127 C 
BRANCH 542 543
ATOM    543  NZ  LYS B  28     -27.497  44.399  20.529  0.00  0.00    +0.219 N 
ATOM    544  H   LYS B  28     -26.757  44.883  21.037  0.00  0.00    +0.199 HD
ATOM    545  H   LYS B  28     -28.297  45.022  20.417  0.00  0.00    +0.199 HD
ATOM    546  H   LYS B  28     -27.152  44.120  19.610  0.00  0.00    +0.199 HD
ENDBRANCH 542 543
ENDBRANCH 541 542
ENDBRANCH 540 541
ENDBRANCH 539 540
ENDBRANCH   1 539
TORSDOF 222
REMARK  Name = /Users/wangyang/Desktop/Breast_cancer_brain_metastasis/wang_Gene/AIDD/15_Protein_ligand_docking/data_7ztl/protein.pdb
REMARK  1290 active torsions:
REMARK  status: ('A' for Active; 'I' for Inactive)
REMARK    1  A    between atoms: N_1  and  CA_2
REMARK    2  A    between atoms: CA_2  and  C_3
REMARK    3  A    between atoms: N_5  and  CA_6
REMARK    4  A    between atoms: CA_6  and  C_7
REMARK    5  A    between atoms: CA_6  and  CB_9
REMARK    6  A    between atoms: N_10  and  CA_11
REMARK    7  A    between atoms: CA_11  and  C_12
REMARK    8  A    between atoms: CA_11  and  CB_14
REMARK    9  A    between atoms: CB_14  and  CG_15
REMARK   10  A    between atoms: N_24  and  CA_25
REMARK   11  A    between atoms: CA_25  and  C_26
REMARK   12  A    between atoms: CA_25  and  CB_28
REMARK   13  A    between atoms: N_29  and  CA_30
REMARK   14  A    between atoms: CA_30  and  C_31
REMARK   15  A    between atoms: CA_30  and  CB_33
REMARK   16  A    between atoms: CB_33  and  CG_34
REMARK   17  A    between atoms: CG_34  and  CD1_35
REMARK   18  A    between atoms: CG_34  and  CD2_36
REMARK   19  A    between atoms: N_37  and  CA_38
REMARK   20  A    between atoms: CA_38  and  C_39
REMARK   21  A    between atoms: CA_38  and  CB_41
REMARK   22  A    between atoms: CB_41  and  CG_42
REMARK   23  A    between atoms: CG_42  and  CD_43
REMARK   24  A    between atoms: N_46  and  CA_47
REMARK   25  A    between atoms: CA_47  and  C_48
REMARK   26  A    between atoms: CA_47  and  CB_50
REMARK   27  A    between atoms: CB_50  and  CG_51
REMARK   28  A    between atoms: N_54  and  CA_55
REMARK   29  A    between atoms: CA_55  and  C_56
REMARK   30  A    between atoms: CA_55  and  CB_58
REMARK   31  A    between atoms: CB_58  and  CG_59
REMARK   32  A    between atoms: N_65  and  CA_66
REMARK   33  A    between atoms: CA_66  and  C_67
REMARK   34  A    between atoms: CA_66  and  CB_69
REMARK   35  A    between atoms: CB_69  and  CG_70
REMARK   36  A    between atoms: CG_70  and  CD_71
REMARK   37  A    between atoms: N_74  and  CA_75
REMARK   38  A    between atoms: CA_75  and  C_76
REMARK   39  A    between atoms: CA_75  and  CB_78
REMARK   40  A    between atoms: CB_78  and  CG1_79
REMARK   41  A    between atoms: CB_78  and  CG2_80
REMARK   42  A    between atoms: CG1_79  and  CD1_81
REMARK   43  A    between atoms: N_82  and  CA_83
REMARK   44  A    between atoms: CA_83  and  C_84
REMARK   45  A    between atoms: N_86  and  CA_87
REMARK   46  A    between atoms: CA_87  and  C_88
REMARK   47  A    between atoms: CA_87  and  CB_90
REMARK   48  A    between atoms: CB_90  and  CG_91
REMARK   49  A    between atoms: CG_91  and  CD_92
REMARK   50  A    between atoms: CD_92  and  NE_93
REMARK   51  A    between atoms: CA_98  and  C_99
REMARK   52  A    between atoms: N_104  and  CA_105
REMARK   53  A    between atoms: CA_105  and  C_106
REMARK   54  A    between atoms: CA_105  and  CB_108
REMARK   55  A    between atoms: CB_108  and  CG_109
REMARK   56  A    between atoms: CG_109  and  CD1_110
REMARK   57  A    between atoms: CG_109  and  CD2_111
REMARK   58  A    between atoms: N_112  and  CA_113
REMARK   59  A    between atoms: CA_113  and  C_114
REMARK   60  A    between atoms: N_116  and  C_117
REMARK   61  A    between atoms: C_117  and  C_118
REMARK   62  A    between atoms: C_117  and  C_120
REMARK   63  A    between atoms: C_120  and  C_121
REMARK   64  A    between atoms: C_121  and  C_122
REMARK   65  A    between atoms: N_123  and  CA_124
REMARK   66  A    between atoms: CA_124  and  C_125
REMARK   67  A    between atoms: N_127  and  CA_128
REMARK   68  A    between atoms: CA_128  and  C_129
REMARK   69  A    between atoms: CA_128  and  CB_131
REMARK   70  A    between atoms: CB_131  and  CG_132
REMARK   71  A    between atoms: CG_132  and  CD_133
REMARK   72  A    between atoms: CD_133  and  CE_134
REMARK   73  A    between atoms: CE_134  and  NZ_135
REMARK   74  A    between atoms: N_136  and  CA_137
REMARK   75  A    between atoms: CA_137  and  C_138
REMARK   76  A    between atoms: CA_137  and  CB_140
REMARK   77  A    between atoms: CB_140  and  CG_141
REMARK   78  A    between atoms: N_147  and  CA_148
REMARK   79  A    between atoms: CA_148  and  C_149
REMARK   80  A    between atoms: N_151  and  CA_152
REMARK   81  A    between atoms: CA_152  and  C_153
REMARK   82  A    between atoms: CA_152  and  CB_155
REMARK   83  A    between atoms: CB_155  and  CG_156
REMARK   84  A    between atoms: N_159  and  CA_160
REMARK   85  A    between atoms: CA_160  and  C_161
REMARK   86  A    between atoms: CA_160  and  CB_163
REMARK   87  A    between atoms: CB_163  and  CG1_164
REMARK   88  A    between atoms: CB_163  and  CG2_165
REMARK   89  A    between atoms: N_166  and  CA_167
REMARK   90  A    between atoms: CA_167  and  C_168
REMARK   91  A    between atoms: CA_167  and  CB_170
REMARK   92  A    between atoms: CB_170  and  CG_171
REMARK   93  A    between atoms: CZ_176  and  OH_177
REMARK   94  A    between atoms: N_178  and  CA_179
REMARK   95  A    between atoms: CA_179  and  C_180
REMARK   96  A    between atoms: CA_179  and  CB_182
REMARK   97  A    between atoms: CB_182  and  CG_183
REMARK   98  A    between atoms: CG_183  and  CD1_184
REMARK   99  A    between atoms: CG_183  and  CD2_185
REMARK  100  A    between atoms: N_186  and  CA_187
REMARK  101  A    between atoms: CA_187  and  C_188
REMARK  102  A    between atoms: CA_187  and  CB_190
REMARK  103  A    between atoms: N_191  and  CA_192
REMARK  104  A    between atoms: CA_192  and  C_193
REMARK  105  A    between atoms: CA_192  and  CB_195
REMARK  106  A    between atoms: CB_195  and  CG_196
REMARK  107  A    between atoms: CG_196  and  CD_197
REMARK  108  A    between atoms: CD_197  and  NE_198
REMARK  109  A    between atoms: N_202  and  CA_203
REMARK  110  A    between atoms: CA_203  and  C_204
REMARK  111  A    between atoms: CA_203  and  CB_206
REMARK  112  A    between atoms: CB_206  and  CG_207
REMARK  113  A    between atoms: CG_207  and  CD_208
REMARK  114  A    between atoms: N_211  and  CA_212
REMARK  115  A    between atoms: CA_212  and  C_213
REMARK  116  A    between atoms: CA_212  and  CB_215
REMARK  117  A    between atoms: CB_215  and  CG_216
REMARK  118  A    between atoms: CG_216  and  CD_217
REMARK  119  A    between atoms: CD_217  and  CE_218
REMARK  120  A    between atoms: CE_218  and  NZ_219
REMARK  121  A    between atoms: N_220  and  CA_221
REMARK  122  A    between atoms: CA_221  and  C_222
REMARK  123  A    between atoms: CA_221  and  CB_224
REMARK  124  A    between atoms: N_225  and  CA_226
REMARK  125  A    between atoms: CA_226  and  C_227
REMARK  126  A    between atoms: CA_226  and  CB_229
REMARK  127  A    between atoms: CB_229  and  OG_230
REMARK  128  A    between atoms: N_231  and  CA_232
REMARK  129  A    between atoms: CA_232  and  C_233
REMARK  130  A    between atoms: CA_232  and  CB_235
REMARK  131  A    between atoms: CB_235  and  CG_236
REMARK  132  A    between atoms: CG_236  and  CD_237
REMARK  133  A    between atoms: CD_237  and  CE_238
REMARK  134  A    between atoms: CE_238  and  NZ_239
REMARK  135  A    between atoms: N_240  and  CA_241
REMARK  136  A    between atoms: CA_241  and  C_242
REMARK  137  A    between atoms: CA_241  and  CB_244
REMARK  138  A    between atoms: CB_244  and  CG_245
REMARK  139  A    between atoms: N_251  and  CA_252
REMARK  140  A    between atoms: CA_252  and  C_253
REMARK  141  A    between atoms: CA_252  and  CB_255
REMARK  142  A    between atoms: CB_255  and  CG1_256
REMARK  143  A    between atoms: CB_255  and  CG2_257
REMARK  144  A    between atoms: CG1_256  and  CD1_258
REMARK  145  A    between atoms: N_259  and  CA_260
REMARK  146  A    between atoms: CA_260  and  C_261
REMARK  147  A    between atoms: CA_260  and  CB_263
REMARK  148  A    between atoms: CB_263  and  CG_264
REMARK  149  A    between atoms: CG_264  and  CD1_265
REMARK  150  A    between atoms: CG_264  and  CD2_266
REMARK  151  A    between atoms: N_267  and  CA_268
REMARK  152  A    between atoms: CA_268  and  C_269
REMARK  153  A    between atoms: CA_268  and  CB_271
REMARK  154  A    between atoms: N_272  and  CA_273
REMARK  155  A    between atoms: CA_273  and  C_274
REMARK  156  A    between atoms: CA_273  and  CB_276
REMARK  157  A    between atoms: CB_276  and  CG_277
REMARK  158  A    between atoms: CG_277  and  CD2_278
REMARK  159  A    between atoms: CG_277  and  CD1_279
REMARK  160  A    between atoms: N_280  and  CA_281
REMARK  161  A    between atoms: CA_281  and  C_282
REMARK  162  A    between atoms: CA_281  and  CB_284
REMARK  163  A    between atoms: CB_284  and  CG_285
REMARK  164  A    between atoms: CG_285  and  CD_286
REMARK  165  A    between atoms: CD_286  and  CE_287
REMARK  166  A    between atoms: CE_287  and  NZ_288
REMARK  167  A    between atoms: N_289  and  CA_290
REMARK  168  A    between atoms: CA_290  and  C_291
REMARK  169  A    between atoms: CA_290  and  CB_293
REMARK  170  A    between atoms: CB_293  and  CG2_294
REMARK  171  A    between atoms: CB_293  and  CG1_295
REMARK  172  A    between atoms: N_296  and  CA_297
REMARK  173  A    between atoms: CA_297  and  C_298
REMARK  174  A    between atoms: CA_297  and  CB_300
REMARK  175  A    between atoms: CB_300  and  CG_301
REMARK  176  A    between atoms: CG_301  and  CD1_302
REMARK  177  A    between atoms: CG_301  and  CD2_303
REMARK  178  A    between atoms: N_304  and  CA_305
REMARK  179  A    between atoms: CA_305  and  C_306
REMARK  180  A    between atoms: CA_305  and  CB_308
REMARK  181  A    between atoms: CB_308  and  CG_309
REMARK  182  A    between atoms: N_315  and  CA_316
REMARK  183  A    between atoms: CA_316  and  C_317
REMARK  184  A    between atoms: CA_316  and  CB_319
REMARK  185  A    between atoms: CB_319  and  CG_320
REMARK  186  A    between atoms: CG_320  and  CD_321
REMARK  187  A    between atoms: CD_321  and  CE_322
REMARK  188  A    between atoms: CE_322  and  NZ_323
REMARK  189  A    between atoms: N_324  and  CA_325
REMARK  190  A    between atoms: CA_325  and  C_326
REMARK  191  A    between atoms: CA_325  and  CB_328
REMARK  192  A    between atoms: N_329  and  CA_330
REMARK  193  A    between atoms: CA_330  and  C_331
REMARK  194  A    between atoms: CA_330  and  CB_333
REMARK  195  A    between atoms: CB_333  and  CG_334
REMARK  196  A    between atoms: CG_334  and  CD_335
REMARK  197  A    between atoms: N_338  and  CA_339
REMARK  198  A    between atoms: CA_339  and  C_340
REMARK  199  A    between atoms: CA_339  and  CB_342
REMARK  200  A    between atoms: CB_342  and  CG_343
REMARK  201  A    between atoms: CG_343  and  CD1_344
REMARK  202  A    between atoms: CG_343  and  CD2_345
REMARK  203  A    between atoms: N_346  and  CA_347
REMARK  204  A    between atoms: CA_347  and  C_348
REMARK  205  A    between atoms: CA_347  and  CB_350
REMARK  206  A    between atoms: CB_350  and  CG_351
REMARK  207  A    between atoms: CG_351  and  CD_352
REMARK  208  A    between atoms: N_355  and  C_356
REMARK  209  A    between atoms: C_356  and  C_357
REMARK  210  A    between atoms: C_356  and  C_359
REMARK  211  A    between atoms: C_359  and  C_360
REMARK  212  A    between atoms: N_361  and  CA_362
REMARK  213  A    between atoms: CA_362  and  C_363
REMARK  214  A    between atoms: CA_362  and  CB_365
REMARK  215  A    between atoms: N_366  and  CA_367
REMARK  216  A    between atoms: CA_367  and  C_368
REMARK  217  A    between atoms: N_370  and  CA_371
REMARK  218  A    between atoms: CA_371  and  C_372
REMARK  219  A    between atoms: CA_371  and  CB_374
REMARK  220  A    between atoms: CB_374  and  CG2_375
REMARK  221  A    between atoms: CB_374  and  CG1_376
REMARK  222  A    between atoms: N_377  and  CA_378
REMARK  223  A    between atoms: CA_378  and  C_379
REMARK  224  A    between atoms: CA_378  and  CB_381
REMARK  225  A    between atoms: CB_381  and  CG_382
REMARK  226  A    between atoms: CG_382  and  CD_383
REMARK  227  A    between atoms: N_386  and  CA_387
REMARK  228  A    between atoms: CA_387  and  C_388
REMARK  229  A    between atoms: CA_387  and  CB_390
REMARK  230  A    between atoms: CB_390  and  CG_391
REMARK  231  A    between atoms: N_396  and  CA_397
REMARK  232  A    between atoms: CA_397  and  C_398
REMARK  233  A    between atoms: CA_397  and  CB_400
REMARK  234  A    between atoms: CB_400  and  CG_401
REMARK  235  A    between atoms: CG_401  and  CD_402
REMARK  236  A    between atoms: N_405  and  CA_406
REMARK  237  A    between atoms: CA_406  and  C_407
REMARK  238  A    between atoms: CA_406  and  CB_409
REMARK  239  A    between atoms: CB_409  and  CG_410
REMARK  240  A    between atoms: CG_410  and  CD2_411
REMARK  241  A    between atoms: CG_410  and  CD1_412
REMARK  242  A    between atoms: N_413  and  CA_414
REMARK  243  A    between atoms: CA_414  and  C_415
REMARK  244  A    between atoms: CA_414  and  CB_417
REMARK  245  A    between atoms: CB_417  and  CG_418
REMARK  246  A    between atoms: CG_418  and  CD_419
REMARK  247  A    between atoms: CD_419  and  NE_420
REMARK  248  A    between atoms: N_424  and  CA_425
REMARK  249  A    between atoms: CA_425  and  C_426
REMARK  250  A    between atoms: CA_425  and  CB_428
REMARK  251  A    between atoms: CB_428  and  CG_429
REMARK  252  A    between atoms: CG_429  and  CD_430
REMARK  253  A    between atoms: CD_430  and  NE_431
REMARK  254  A    between atoms: N_435  and  CA_436
REMARK  255  A    between atoms: CA_436  and  C_437
REMARK  256  A    between atoms: CA_436  and  CB_439
REMARK  257  A    between atoms: CB_439  and  CG_440
REMARK  258  A    between atoms: CG_440  and  CD_441
REMARK  259  A    between atoms: N_444  and  CA_445
REMARK  260  A    between atoms: CA_445  and  C_446
REMARK  261  A    between atoms: CA_445  and  CB_448
REMARK  262  A    between atoms: CB_448  and  CG1_449
REMARK  263  A    between atoms: CB_448  and  CG2_450
REMARK  264  A    between atoms: N_451  and  C_452
REMARK  265  A    between atoms: C_452  and  C_453
REMARK  266  A    between atoms: C_452  and  C_455
REMARK  267  A    between atoms: C_455  and  C_456
REMARK  268  A    between atoms: N_457  and  CA_458
REMARK  269  A    between atoms: CA_458  and  C_459
REMARK  270  A    between atoms: CA_458  and  CB_461
REMARK  271  A    between atoms: CB_461  and  CG1_462
REMARK  272  A    between atoms: CB_461  and  CG2_463
REMARK  273  A    between atoms: CG1_462  and  CD1_464
REMARK  274  A    between atoms: N_465  and  CA_466
REMARK  275  A    between atoms: CA_466  and  C_467
REMARK  276  A    between atoms: CA_466  and  CB_469
REMARK  277  A    between atoms: CB_469  and  CG_470
REMARK  278  A    between atoms: CG_470  and  CD_471
REMARK  279  A    between atoms: N_474  and  C_475
REMARK  280  A    between atoms: C_475  and  C_476
REMARK  281  A    between atoms: C_475  and  C_478
REMARK  282  A    between atoms: C_478  and  O_479
REMARK  283  A    between atoms: N_480  and  C_481
REMARK  284  A    between atoms: C_481  and  C_482
REMARK  285  A    between atoms: C_481  and  C_484
REMARK  286  A    between atoms: C_484  and  C_485
REMARK  287  A    between atoms: N_490  and  C_491
REMARK  288  A    between atoms: C_491  and  C_492
REMARK  289  A    between atoms: C_491  and  C_494
REMARK  290  A    between atoms: C_494  and  C_495
REMARK  291  A    between atoms: C_495  and  C_496
REMARK  292  A    between atoms: C_495  and  C_497
REMARK  293  A    between atoms: N_498  and  C_499
REMARK  294  A    between atoms: C_499  and  C_500
REMARK  295  A    between atoms: C_499  and  C_502
REMARK  296  A    between atoms: C_502  and  C_503
REMARK  297  A    between atoms: C_503  and  C_504
REMARK  298  A    between atoms: C_504  and  N_505
REMARK  299  A    between atoms: N_509  and  C_510
REMARK  300  A    between atoms: C_510  and  C_511
REMARK  301  A    between atoms: C_510  and  C_513
REMARK  302  A    between atoms: C_513  and  C_514
REMARK  303  A    between atoms: C_520  and  C_521
REMARK  304  A    between atoms: N_526  and  C_527
REMARK  305  A    between atoms: C_527  and  C_528
REMARK  306  A    between atoms: C_527  and  C_530
REMARK  307  A    between atoms: C_530  and  C_531
REMARK  308  A    between atoms: N_534  and  C_535
REMARK  309  A    between atoms: C_535  and  C_536
REMARK  310  A    between atoms: C_535  and  C_538
REMARK  311  A    between atoms: C_538  and  C_539
REMARK  312  A    between atoms: C_538  and  C_540
REMARK  313  A    between atoms: C_539  and  C_541
REMARK  314  A    between atoms: N_542  and  C_543
REMARK  315  A    between atoms: C_543  and  C_544
REMARK  316  A    between atoms: C_543  and  C_546
REMARK  317  A    between atoms: C_546  and  C_547
REMARK  318  A    between atoms: C_547  and  C_548
REMARK  319  A    between atoms: C_547  and  C_549
REMARK  320  A    between atoms: N_550  and  C_551
REMARK  321  A    between atoms: C_551  and  C_552
REMARK  322  A    between atoms: C_551  and  C_554
REMARK  323  A    between atoms: C_554  and  C_555
REMARK  324  A    between atoms: C_555  and  C_556
REMARK  325  A    between atoms: C_556  and  N_557
REMARK  326  A    between atoms: N_561  and  C_562
REMARK  327  A    between atoms: C_562  and  C_567
REMARK  328  A    between atoms: C_563  and  C_564
REMARK  329  A    between atoms: C_568  and  C_569
REMARK  330  A    between atoms: C_568  and  C_571
REMARK  331  A    between atoms: C_569  and  C_572
REMARK  332  A    between atoms: C_569  and  C_573
REMARK  333  A    between atoms: C_570  and  C_573
REMARK  334  A    between atoms: N_574  and  CA_575
REMARK  335  A    between atoms: CA_575  and  C_576
REMARK  336  A    between atoms: CA_575  and  CB_578
REMARK  337  A    between atoms: CB_578  and  CG_579
REMARK  338  A    between atoms: CZ_584  and  OH_585
REMARK  339  A    between atoms: N_586  and  CA_587
REMARK  340  A    between atoms: CA_587  and  C_588
REMARK  341  A    between atoms: N_590  and  CA_591
REMARK  342  A    between atoms: CA_591  and  C_592
REMARK  343  A    between atoms: CA_591  and  CB_594
REMARK  344  A    between atoms: CB_594  and  CG_595
REMARK  345  A    between atoms: CZ_600  and  OH_601
REMARK  346  A    between atoms: N_602  and  CA_603
REMARK  347  A    between atoms: CA_603  and  C_604
REMARK  348  A    between atoms: CA_603  and  CB_606
REMARK  349  A    between atoms: CB_606  and  CG_607
REMARK  350  A    between atoms: N_613  and  CA_614
REMARK  351  A    between atoms: CA_614  and  C_615
REMARK  352  A    between atoms: CA_614  and  CB_617
REMARK  353  A    between atoms: CB_617  and  CG_618
REMARK  354  A    between atoms: N_623  and  CA_624
REMARK  355  A    between atoms: CA_624  and  C_625
REMARK  356  A    between atoms: CA_624  and  CB_627
REMARK  357  A    between atoms: CB_627  and  CG_628
REMARK  358  A    between atoms: N_631  and  CA_632
REMARK  359  A    between atoms: CA_632  and  C_633
REMARK  360  A    between atoms: CA_632  and  CB_635
REMARK  361  A    between atoms: N_636  and  CA_637
REMARK  362  A    between atoms: CA_637  and  C_638
REMARK  363  A    between atoms: CA_637  and  CB_640
REMARK  364  A    between atoms: CB_640  and  OG1_641
REMARK  365  A    between atoms: CB_640  and  CG2_642
REMARK  366  A    between atoms: N_643  and  CA_644
REMARK  367  A    between atoms: CA_644  and  C_645
REMARK  368  A    between atoms: CA_644  and  CB_647
REMARK  369  A    between atoms: CB_647  and  CG_648
REMARK  370  A    between atoms: CG_648  and  CD_649
REMARK  371  A    between atoms: CD_649  and  NE_650
REMARK  372  A    between atoms: N_654  and  CA_655
REMARK  373  A    between atoms: CA_655  and  C_656
REMARK  374  A    between atoms: CA_655  and  CB_658
REMARK  375  A    between atoms: CB_658  and  CG1_659
REMARK  376  A    between atoms: CB_658  and  CG2_660
REMARK  377  A    between atoms: N_661  and  CA_662
REMARK  378  A    between atoms: CA_662  and  C_663
REMARK  379  A    between atoms: CA_662  and  CB_665
REMARK  380  A    between atoms: CB_665  and  CG_666
REMARK  381  A    between atoms: CZ_671  and  OH_672
REMARK  382  A    between atoms: N_673  and  CA_674
REMARK  383  A    between atoms: CA_674  and  C_675
REMARK  384  A    between atoms: CA_674  and  CB_677
REMARK  385  A    between atoms: CB_677  and  CG_678
REMARK  386  A    between atoms: CG_678  and  CD2_679
REMARK  387  A    between atoms: CG_678  and  CD1_680
REMARK  388  A    between atoms: N_681  and  CA_682
REMARK  389  A    between atoms: CA_682  and  C_683
REMARK  390  A    between atoms: CA_682  and  CB_685
REMARK  391  A    between atoms: CB_685  and  CG1_686
REMARK  392  A    between atoms: CB_685  and  CG2_687
REMARK  393  A    between atoms: CG1_686  and  CD1_688
REMARK  394  A    between atoms: N_689  and  CA_690
REMARK  395  A    between atoms: CA_690  and  C_691
REMARK  396  A    between atoms: CA_690  and  CB_693
REMARK  397  A    between atoms: CB_693  and  CG_694
REMARK  398  A    between atoms: CG_694  and  CD2_695
REMARK  399  A    between atoms: CG_694  and  CD1_696
REMARK  400  A    between atoms: N_697  and  CA_698
REMARK  401  A    between atoms: CA_698  and  C_699
REMARK  402  A    between atoms: CA_698  and  CB_701
REMARK  403  A    between atoms: CB_701  and  CG_702
REMARK  404  A    between atoms: CG_702  and  CD_703
REMARK  405  A    between atoms: N_706  and  CA_707
REMARK  406  A    between atoms: CA_707  and  C_708
REMARK  407  A    between atoms: CA_707  and  CB_710
REMARK  408  A    between atoms: CB_710  and  CG_711
REMARK  409  A    between atoms: CZ_716  and  OH_717
REMARK  410  A    between atoms: N_718  and  CA_719
REMARK  411  A    between atoms: CA_719  and  C_720
REMARK  412  A    between atoms: CA_719  and  CB_722
REMARK  413  A    between atoms: CA_724  and  C_725
REMARK  414  A    between atoms: N_730  and  CA_731
REMARK  415  A    between atoms: CA_731  and  C_732
REMARK  416  A    between atoms: CA_731  and  CB_734
REMARK  417  A    between atoms: CB_734  and  CG_735
REMARK  418  A    between atoms: CG_735  and  CD1_736
REMARK  419  A    between atoms: CG_735  and  CD2_737
REMARK  420  A    between atoms: N_738  and  CA_739
REMARK  421  A    between atoms: CA_739  and  C_740
REMARK  422  A    between atoms: N_742  and  CA_743
REMARK  423  A    between atoms: CA_743  and  C_744
REMARK  424  A    between atoms: CA_743  and  CB_746
REMARK  425  A    between atoms: CB_746  and  OG1_747
REMARK  426  A    between atoms: CB_746  and  CG2_748
REMARK  427  A    between atoms: N_749  and  CA_750
REMARK  428  A    between atoms: CA_750  and  C_751
REMARK  429  A    between atoms: CA_750  and  CB_753
REMARK  430  A    between atoms: CB_753  and  CG2_754
REMARK  431  A    between atoms: CB_753  and  CG1_755
REMARK  432  A    between atoms: N_756  and  CA_757
REMARK  433  A    between atoms: CA_757  and  C_758
REMARK  434  A    between atoms: CA_757  and  CB_760
REMARK  435  A    between atoms: CB_760  and  CG_761
REMARK  436  A    between atoms: CZ_766  and  OH_767
REMARK  437  A    between atoms: N_768  and  C_769
REMARK  438  A    between atoms: C_769  and  C_770
REMARK  439  A    between atoms: C_769  and  C_772
REMARK  440  A    between atoms: C_772  and  C_773
REMARK  441  A    between atoms: N_774  and  CA_775
REMARK  442  A    between atoms: CA_775  and  C_776
REMARK  443  A    between atoms: CA_775  and  CB_778
REMARK  444  A    between atoms: CB_778  and  CG_779
REMARK  445  A    between atoms: CG_779  and  CD_780
REMARK  446  A    between atoms: N_783  and  CA_784
REMARK  447  A    between atoms: CA_784  and  C_785
REMARK  448  A    between atoms: CA_784  and  CB_787
REMARK  449  A    between atoms: CB_787  and  CG_788
REMARK  450  A    between atoms: CG_788  and  CD2_789
REMARK  451  A    between atoms: CG_788  and  CD1_790
REMARK  452  A    between atoms: N_791  and  CA_792
REMARK  453  A    between atoms: CA_792  and  C_793
REMARK  454  A    between atoms: CA_792  and  CB_795
REMARK  455  A    between atoms: CB_795  and  CG_796
REMARK  456  A    between atoms: CG_796  and  CD_797
REMARK  457  A    between atoms: N_800  and  CA_801
REMARK  458  A    between atoms: CA_801  and  C_802
REMARK  459  A    between atoms: CA_801  and  CB_804
REMARK  460  A    between atoms: CB_804  and  CG_805
REMARK  461  A    between atoms: CG_805  and  CD_806
REMARK  462  A    between atoms: CD_806  and  CE_807
REMARK  463  A    between atoms: CE_807  and  NZ_808
REMARK  464  A    between atoms: N_809  and  CA_810
REMARK  465  A    between atoms: CA_810  and  C_811
REMARK  466  A    between atoms: CA_810  and  CB_813
REMARK  467  A    between atoms: CB_813  and  CG_814
REMARK  468  A    between atoms: CG_814  and  CD1_815
REMARK  469  A    between atoms: CG_814  and  CD2_816
REMARK  470  A    between atoms: N_817  and  CA_818
REMARK  471  A    between atoms: CA_818  and  C_819
REMARK  472  A    between atoms: CA_818  and  CB_821
REMARK  473  A    between atoms: CB_821  and  OG_822
REMARK  474  A    between atoms: N_823  and  CA_824
REMARK  475  A    between atoms: CA_824  and  C_825
REMARK  476  A    between atoms: CA_824  and  CB_827
REMARK  477  A    between atoms: CB_827  and  CG_828
REMARK  478  A    between atoms: CG_828  and  CD_829
REMARK  479  A    between atoms: CD_829  and  CE_830
REMARK  480  A    between atoms: CE_830  and  NZ_831
REMARK  481  A    between atoms: N_832  and  CA_833
REMARK  482  A    between atoms: CA_833  and  C_834
REMARK  483  A    between atoms: CA_833  and  CB_836
REMARK  484  A    between atoms: CB_836  and  CG_837
REMARK  485  A    between atoms: N_843  and  CA_844
REMARK  486  A    between atoms: CA_844  and  C_845
REMARK  487  A    between atoms: CA_844  and  CB_847
REMARK  488  A    between atoms: CB_847  and  CG_848
REMARK  489  A    between atoms: N_851  and  CA_852
REMARK  490  A    between atoms: CA_852  and  C_853
REMARK  491  A    between atoms: CA_852  and  CB_855
REMARK  492  A    between atoms: CB_855  and  CG_856
REMARK  493  A    between atoms: CG_856  and  CD_857
REMARK  494  A    between atoms: N_860  and  CA_861
REMARK  495  A    between atoms: CA_861  and  C_862
REMARK  496  A    between atoms: CA_861  and  CB_864
REMARK  497  A    between atoms: CB_864  and  CG_865
REMARK  498  A    between atoms: CG_865  and  CD_866
REMARK  499  A    between atoms: N_869  and  CA_870
REMARK  500  A    between atoms: CA_870  and  C_871
REMARK  501  A    between atoms: CA_870  and  CB_873
REMARK  502  A    between atoms: CB_873  and  CG_874
REMARK  503  A    between atoms: CG_874  and  CD_875
REMARK  504  A    between atoms: CD_875  and  NE_876
REMARK  505  A    between atoms: N_880  and  CA_881
REMARK  506  A    between atoms: CA_881  and  C_882
REMARK  507  A    between atoms: CA_881  and  CB_884
REMARK  508  A    between atoms: CB_884  and  OG1_885
REMARK  509  A    between atoms: CB_884  and  CG2_886
REMARK  510  A    between atoms: N_887  and  CA_888
REMARK  511  A    between atoms: CA_888  and  C_889
REMARK  512  A    between atoms: CA_888  and  CB_891
REMARK  513  A    between atoms: N_892  and  CA_893
REMARK  514  A    between atoms: CA_893  and  C_894
REMARK  515  A    between atoms: CA_893  and  CB_896
REMARK  516  A    between atoms: CB_896  and  OG1_897
REMARK  517  A    between atoms: CB_896  and  CG2_898
REMARK  518  A    between atoms: N_899  and  CA_900
REMARK  519  A    between atoms: CA_900  and  C_901
REMARK  520  A    between atoms: CA_900  and  CB_903
REMARK  521  A    between atoms: CB_903  and  CG_904
REMARK  522  A    between atoms: CZ_909  and  OH_910
REMARK  523  A    between atoms: N_911  and  CA_912
REMARK  524  A    between atoms: CA_912  and  C_913
REMARK  525  A    between atoms: CA_912  and  CB_915
REMARK  526  A    between atoms: CB_915  and  CG1_916
REMARK  527  A    between atoms: CB_915  and  CG2_917
REMARK  528  A    between atoms: CG1_916  and  CD1_918
REMARK  529  A    between atoms: N_919  and  CA_920
REMARK  530  A    between atoms: CA_920  and  C_921
REMARK  531  A    between atoms: CA_920  and  CB_923
REMARK  532  A    between atoms: CB_923  and  OG1_924
REMARK  533  A    between atoms: CB_923  and  CG2_925
REMARK  534  A    between atoms: N_926  and  CA_927
REMARK  535  A    between atoms: CA_927  and  C_928
REMARK  536  A    between atoms: CA_927  and  CB_930
REMARK  537  A    between atoms: CB_930  and  CG_931
REMARK  538  A    between atoms: CG_931  and  CD_932
REMARK  539  A    between atoms: N_935  and  CA_936
REMARK  540  A    between atoms: CA_936  and  C_937
REMARK  541  A    between atoms: CA_936  and  CB_939
REMARK  542  A    between atoms: CB_939  and  CG_940
REMARK  543  A    between atoms: CG_940  and  CD2_941
REMARK  544  A    between atoms: CG_940  and  CD1_942
REMARK  545  A    between atoms: N_943  and  CA_944
REMARK  546  A    between atoms: CA_944  and  C_945
REMARK  547  A    between atoms: CA_944  and  CB_947
REMARK  548  A    between atoms: N_948  and  CA_949
REMARK  549  A    between atoms: CA_949  and  C_950
REMARK  550  A    between atoms: CA_949  and  CB_952
REMARK  551  A    between atoms: CB_952  and  CG_953
REMARK  552  A    between atoms: N_956  and  CA_957
REMARK  553  A    between atoms: CA_957  and  C_958
REMARK  554  A    between atoms: CA_957  and  CB_960
REMARK  555  A    between atoms: N_961  and  CA_962
REMARK  556  A    between atoms: CA_962  and  C_963
REMARK  557  A    between atoms: CA_962  and  CB_965
REMARK  558  A    between atoms: CB_965  and  CG_966
REMARK  559  A    between atoms: CG_966  and  CD2_967
REMARK  560  A    between atoms: CG_966  and  CD1_968
REMARK  561  A    between atoms: N_969  and  CA_970
REMARK  562  A    between atoms: CA_970  and  C_971
REMARK  563  A    between atoms: CA_970  and  CB_973
REMARK  564  A    between atoms: CB_973  and  OG_974
REMARK  565  A    between atoms: N_975  and  CA_976
REMARK  566  A    between atoms: CA_976  and  C_977
REMARK  567  A    between atoms: CA_976  and  CB_979
REMARK  568  A    between atoms: CB_979  and  CG_980
REMARK  569  A    between atoms: CZ_985  and  OH_986
REMARK  570  A    between atoms: N_987  and  CA_988
REMARK  571  A    between atoms: CA_988  and  C_989
REMARK  572  A    between atoms: CA_988  and  CB_991
REMARK  573  A    between atoms: CB_991  and  SG_992
REMARK  574  A    between atoms: N_993  and  CA_994
REMARK  575  A    between atoms: CA_994  and  C_995
REMARK  576  A    between atoms: CA_994  and  CB_997
REMARK  577  A    between atoms: CB_997  and  CG_998
REMARK  578  A    between atoms: N_1003  and  C_1004
REMARK  579  A    between atoms: C_1004  and  C_1005
REMARK  580  A    between atoms: C_1004  and  C_1007
REMARK  581  A    between atoms: C_1007  and  O_1008
REMARK  582  A    between atoms: N_1009  and  C_1010
REMARK  583  A    between atoms: C_1010  and  C_1011
REMARK  584  A    between atoms: C_1010  and  C_1013
REMARK  585  A    between atoms: C_1013  and  C_1014
REMARK  586  A    between atoms: C_1014  and  C_1015
REMARK  587  A    between atoms: C_1015  and  C_1016
REMARK  588  A    between atoms: C_1016  and  N_1017
REMARK  589  A    between atoms: N_1018  and  C_1019
REMARK  590  A    between atoms: C_1020  and  C_1021
REMARK  591  A    between atoms: C_1020  and  C_1024
REMARK  592  A    between atoms: C_1023  and  C_1026
REMARK  593  A    between atoms: C_1025  and  C_1026
REMARK  594  A    between atoms: C_1027  and  N_1029
REMARK  595  A    between atoms: C_1028  and  N_1030
REMARK  596  A    between atoms: N_1037  and  C_1038
REMARK  597  A    between atoms: C_1038  and  C_1039
REMARK  598  A    between atoms: C_1038  and  C_1041
REMARK  599  A    between atoms: C_1041  and  C_1042
REMARK  600  A    between atoms: C_1041  and  C_1043
REMARK  601  A    between atoms: N_1044  and  C_1045
REMARK  602  A    between atoms: C_1045  and  C_1046
REMARK  603  A    between atoms: C_1045  and  C_1048
REMARK  604  A    between atoms: C_1048  and  C_1049
REMARK  605  A    between atoms: C_1048  and  C_1050
REMARK  606  A    between atoms: C_1049  and  C_1051
REMARK  607  A    between atoms: N_1052  and  C_1053
REMARK  608  A    between atoms: C_1053  and  C_1054
REMARK  609  A    between atoms: C_1053  and  C_1056
REMARK  610  A    between atoms: C_1056  and  C_1057
REMARK  611  A    between atoms: N_1062  and  C_1063
REMARK  612  A    between atoms: C_1063  and  C_1064
REMARK  613  A    between atoms: C_1063  and  C_1066
REMARK  614  A    between atoms: C_1066  and  C_1067
REMARK  615  A    between atoms: C_1067  and  C_1068
REMARK  616  A    between atoms: C_1068  and  N_1069
REMARK  617  A    between atoms: N_1073  and  C_1074
REMARK  618  A    between atoms: C_1074  and  C_1077
REMARK  619  A    between atoms: C_1077  and  C_1078
REMARK  620  A    between atoms: N_1081  and  C_1084
REMARK  621  A    between atoms: C_1083  and  C_1085
REMARK  622  A    between atoms: C_1085  and  C_1086
REMARK  623  A    between atoms: C_1085  and  O_1087
REMARK  624  A    between atoms: C_1085  and  N_1097
REMARK  625  A    between atoms: C_1089  and  C_1094
REMARK  626  A    between atoms: C_1090  and  C_1091
REMARK  627  A    between atoms: C_1093  and  C_1094
REMARK  628  A    between atoms: C_1098  and  C_1099
REMARK  629  A    between atoms: C_1098  and  C_1101
REMARK  630  A    between atoms: C_1101  and  C_1102
REMARK  631  A    between atoms: C_1102  and  C_1103
REMARK  632  A    between atoms: C_1103  and  C_1104
REMARK  633  A    between atoms: C_1104  and  N_1105
REMARK  634  A    between atoms: C_1107  and  C_1108
REMARK  635  A    between atoms: N_1113  and  CA_1114
REMARK  636  A    between atoms: CA_1114  and  C_1115
REMARK  637  A    between atoms: CA_1114  and  CB_1117
REMARK  638  A    between atoms: CB_1117  and  CG_1118
REMARK  639  A    between atoms: CG_1118  and  CD_1119
REMARK  640  A    between atoms: N_1122  and  CA_1123
REMARK  641  A    between atoms: CA_1123  and  C_1124
REMARK  642  A    between atoms: CA_1123  and  CB_1126
REMARK  643  A    between atoms: CB_1126  and  CG_1127
REMARK  644  A    between atoms: N_1130  and  CA_1131
REMARK  645  A    between atoms: CA_1131  and  C_1132
REMARK  646  A    between atoms: CA_1131  and  CB_1134
REMARK  647  A    between atoms: CB_1134  and  CG_1135
REMARK  648  A    between atoms: CG_1135  and  CD2_1136
REMARK  649  A    between atoms: CG_1135  and  CD1_1137
REMARK  650  A    between atoms: N_1138  and  CA_1139
REMARK  651  A    between atoms: CA_1139  and  C_1140
REMARK  652  A    between atoms: CA_1139  and  CB_1142
REMARK  653  A    between atoms: CB_1142  and  CG_1143
REMARK  654  A    between atoms: CG_1143  and  CD1_1144
REMARK  655  A    between atoms: CG_1143  and  CD2_1145
REMARK  656  A    between atoms: N_1146  and  CA_1147
REMARK  657  A    between atoms: CA_1147  and  C_1148
REMARK  658  A    between atoms: CA_1147  and  CB_1150
REMARK  659  A    between atoms: CB_1150  and  CG_1151
REMARK  660  A    between atoms: CG_1151  and  CD2_1152
REMARK  661  A    between atoms: CG_1151  and  CD1_1153
REMARK  662  A    between atoms: N_1154  and  CA_1155
REMARK  663  A    between atoms: CA_1155  and  C_1156
REMARK  664  A    between atoms: N_1158  and  CA_1159
REMARK  665  A    between atoms: CA_1159  and  C_1160
REMARK  666  A    between atoms: CA_1159  and  CB_1162
REMARK  667  A    between atoms: CB_1162  and  OG_1163
REMARK  668  A    between atoms: N_1164  and  CA_1165
REMARK  669  A    between atoms: CA_1165  and  C_1166
REMARK  670  A    between atoms: CA_1165  and  CB_1168
REMARK  671  A    between atoms: N_1169  and  CA_1170
REMARK  672  A    between atoms: CA_1170  and  C_1171
REMARK  673  A    between atoms: N_1173  and  CA_1174
REMARK  674  A    between atoms: CA_1174  and  C_1175
REMARK  675  A    between atoms: CA_1174  and  CB_1177
REMARK  676  A    between atoms: CB_1177  and  CG_1178
REMARK  677  A    between atoms: CG_1178  and  CD_1179
REMARK  678  A    between atoms: N_1182  and  CA_1183
REMARK  679  A    between atoms: CA_1183  and  C_1184
REMARK  680  A    between atoms: CA_1183  and  CB_1186
REMARK  681  A    between atoms: CB_1186  and  CG_1187
REMARK  682  A    between atoms: CG_1187  and  CD2_1188
REMARK  683  A    between atoms: CG_1187  and  CD1_1189
REMARK  684  A    between atoms: N_1190  and  CA_1191
REMARK  685  A    between atoms: CA_1191  and  C_1192
REMARK  686  A    between atoms: CA_1191  and  CB_1194
REMARK  687  A    between atoms: CB_1194  and  CG_1195
REMARK  688  A    between atoms: CG_1195  and  CD_1196
REMARK  689  A    between atoms: CD_1196  and  CE_1197
REMARK  690  A    between atoms: CE_1197  and  NZ_1198
REMARK  691  A    between atoms: N_1199  and  CA_1200
REMARK  692  A    between atoms: CA_1200  and  C_1201
REMARK  693  A    between atoms: CA_1200  and  CB_1203
REMARK  694  A    between atoms: CB_1203  and  CG1_1204
REMARK  695  A    between atoms: CB_1203  and  CG2_1205
REMARK  696  A    between atoms: CG1_1204  and  CD1_1206
REMARK  697  A    between atoms: N_1207  and  CA_1208
REMARK  698  A    between atoms: CA_1208  and  C_1209
REMARK  699  A    between atoms: CA_1208  and  CB_1211
REMARK  700  A    between atoms: N_1212  and  CA_1213
REMARK  701  A    between atoms: CA_1213  and  C_1214
REMARK  702  A    between atoms: CA_1213  and  CB_1216
REMARK  703  A    between atoms: CB_1216  and  CG_1217
REMARK  704  A    between atoms: N_1220  and  CA_1221
REMARK  705  A    between atoms: CA_1221  and  C_1222
REMARK  706  A    between atoms: CA_1221  and  CB_1224
REMARK  707  A    between atoms: CB_1224  and  CG_1225
REMARK  708  A    between atoms: N_1231  and  CA_1232
REMARK  709  A    between atoms: CA_1232  and  C_1233
REMARK  710  A    between atoms: N_1235  and  CA_1236
REMARK  711  A    between atoms: CA_1236  and  C_1237
REMARK  712  A    between atoms: CA_1236  and  CB_1239
REMARK  713  A    between atoms: CB_1239  and  CG_1240
REMARK  714  A    between atoms: N_1249  and  CA_1250
REMARK  715  A    between atoms: CA_1250  and  C_1251
REMARK  716  A    between atoms: CA_1250  and  CB_1253
REMARK  717  A    between atoms: CB_1253  and  OG_1254
REMARK  718  A    between atoms: N_1255  and  CA_1256
REMARK  719  A    between atoms: CA_1256  and  C_1257
REMARK  720  A    between atoms: CA_1256  and  CB_1259
REMARK  721  A    between atoms: CB_1259  and  CG2_1260
REMARK  722  A    between atoms: CB_1259  and  CG1_1261
REMARK  723  A    between atoms: N_1262  and  CA_1263
REMARK  724  A    between atoms: CA_1263  and  C_1264
REMARK  725  A    between atoms: CA_1263  and  CB_1266
REMARK  726  A    between atoms: CB_1266  and  CG_1267
REMARK  727  A    between atoms: N_1272  and  CA_1273
REMARK  728  A    between atoms: CA_1273  and  C_1274
REMARK  729  A    between atoms: CA_1273  and  CB_1276
REMARK  730  A    between atoms: CA_1278  and  C_1279
REMARK  731  A    between atoms: N_1284  and  CA_1285
REMARK  732  A    between atoms: CA_1285  and  C_1286
REMARK  733  A    between atoms: CA_1285  and  CB_1288
REMARK  734  A    between atoms: CB_1288  and  OG_1289
REMARK  735  A    between atoms: N_1290  and  CA_1291
REMARK  736  A    between atoms: CA_1291  and  C_1292
REMARK  737  A    between atoms: CA_1291  and  CB_1294
REMARK  738  A    between atoms: CB_1294  and  OG_1295
REMARK  739  A    between atoms: N_1296  and  C_1297
REMARK  740  A    between atoms: C_1297  and  C_1298
REMARK  741  A    between atoms: C_1297  and  C_1300
REMARK  742  A    between atoms: C_1300  and  C_1301
REMARK  743  A    between atoms: C_1301  and  C_1302
REMARK  744  A    between atoms: N_1303  and  CA_1304
REMARK  745  A    between atoms: CA_1304  and  C_1305
REMARK  746  A    between atoms: CA_1304  and  CB_1307
REMARK  747  A    between atoms: CB_1307  and  CG_1308
REMARK  748  A    between atoms: CG_1308  and  CD_1309
REMARK  749  A    between atoms: CD_1309  and  NE_1310
REMARK  750  A    between atoms: N_1314  and  CA_1315
REMARK  751  A    between atoms: CA_1315  and  C_1316
REMARK  752  A    between atoms: CA_1315  and  CB_1318
REMARK  753  A    between atoms: CB_1318  and  OG1_1319
REMARK  754  A    between atoms: CB_1318  and  CG2_1320
REMARK  755  A    between atoms: N_1321  and  C_1322
REMARK  756  A    between atoms: C_1322  and  C_1323
REMARK  757  A    between atoms: C_1322  and  C_1325
REMARK  758  A    between atoms: C_1325  and  C_1326
REMARK  759  A    between atoms: C_1326  and  C_1327
REMARK  760  A    between atoms: C_1326  and  C_1328
REMARK  761  A    between atoms: N_1329  and  C_1330
REMARK  762  A    between atoms: C_1330  and  C_1331
REMARK  763  A    between atoms: C_1330  and  C_1333
REMARK  764  A    between atoms: N_1334  and  C_1335
REMARK  765  A    between atoms: C_1335  and  C_1336
REMARK  766  A    between atoms: N_1338  and  C_1339
REMARK  767  A    between atoms: C_1339  and  C_1340
REMARK  768  A    between atoms: C_1339  and  C_1342
REMARK  769  A    between atoms: C_1342  and  O_1343
REMARK  770  A    between atoms: C_1342  and  C_1344
REMARK  771  A    between atoms: N_1345  and  C_1346
REMARK  772  A    between atoms: C_1346  and  C_1347
REMARK  773  A    between atoms: C_1346  and  C_1349
REMARK  774  A    between atoms: C_1349  and  C_1350
REMARK  775  A    between atoms: C_1350  and  C_1351
REMARK  776  A    between atoms: C_1350  and  C_1352
REMARK  777  A    between atoms: N_1353  and  C_1354
REMARK  778  A    between atoms: C_1354  and  C_1355
REMARK  779  A    between atoms: C_1354  and  C_1357
REMARK  780  A    between atoms: C_1357  and  C_1358
REMARK  781  A    between atoms: N_1361  and  C_1362
REMARK  782  A    between atoms: C_1362  and  C_1363
REMARK  783  A    between atoms: C_1362  and  C_1365
REMARK  784  A    between atoms: C_1365  and  C_1366
REMARK  785  A    between atoms: C_1371  and  O_1372
REMARK  786  A    between atoms: N_1373  and  C_1374
REMARK  787  A    between atoms: C_1374  and  C_1375
REMARK  788  A    between atoms: C_1374  and  C_1377
REMARK  789  A    between atoms: C_1377  and  C_1378
REMARK  790  A    between atoms: C_1378  and  C_1379
REMARK  791  A    between atoms: C_1378  and  C_1380
REMARK  792  A    between atoms: C_1382  and  C_1383
REMARK  793  A    between atoms: C_1389  and  C_1390
REMARK  794  A    between atoms: N_1395  and  C_1396
REMARK  795  A    between atoms: C_1396  and  C_1399
REMARK  796  A    between atoms: C_1399  and  C_1400
REMARK  797  A    between atoms: C_1400  and  C_1401
REMARK  798  A    between atoms: N_1405  and  C_1406
REMARK  799  A    between atoms: C_1407  and  C_1412
REMARK  800  A    between atoms: C_1408  and  O_1410
REMARK  801  A    between atoms: C_1409  and  O_1411
REMARK  802  A    between atoms: O_1410  and  O_1411
REMARK  803  A    between atoms: C_1412  and  C_1414
REMARK  804  A    between atoms: C_1413  and  C_1415
REMARK  805  A    between atoms: S_1416  and  C_1418
REMARK  806  A    between atoms: S_1417  and  C_1419
REMARK  807  A    between atoms: C_1418  and  C_1419
REMARK  808  A    between atoms: N_1420  and  CA_1421
REMARK  809  A    between atoms: CA_1421  and  C_1422
REMARK  810  A    between atoms: CA_1421  and  CB_1424
REMARK  811  A    between atoms: CB_1424  and  CG1_1425
REMARK  812  A    between atoms: CB_1424  and  CG2_1426
REMARK  813  A    between atoms: CG1_1425  and  CD1_1427
REMARK  814  A    between atoms: N_1428  and  CA_1429
REMARK  815  A    between atoms: CA_1429  and  C_1430
REMARK  816  A    between atoms: CA_1429  and  CB_1432
REMARK  817  A    between atoms: CB_1432  and  CG_1433
REMARK  818  A    between atoms: CG_1433  and  CD_1434
REMARK  819  A    between atoms: N_1437  and  CA_1438
REMARK  820  A    between atoms: CA_1438  and  C_1439
REMARK  821  A    between atoms: N_1441  and  CA_1442
REMARK  822  A    between atoms: CA_1442  and  C_1443
REMARK  823  A    between atoms: CA_1442  and  CB_1445
REMARK  824  A    between atoms: CB_1445  and  CG_1446
REMARK  825  A    between atoms: CG_1446  and  CD_1447
REMARK  826  A    between atoms: CD_1447  and  NE_1448
REMARK  827  A    between atoms: N_1452  and  C_1453
REMARK  828  A    between atoms: C_1453  and  C_1454
REMARK  829  A    between atoms: C_1453  and  C_1456
REMARK  830  A    between atoms: C_1456  and  C_1457
REMARK  831  A    between atoms: C_1457  and  S_1458
REMARK  832  A    between atoms: N_1459  and  CA_1460
REMARK  833  A    between atoms: CA_1460  and  C_1461
REMARK  834  A    between atoms: CA_1460  and  CB_1463
REMARK  835  A    between atoms: CB_1463  and  CG_1464
REMARK  836  A    between atoms: N_1469  and  CA_1470
REMARK  837  A    between atoms: CA_1470  and  C_1471
REMARK  838  A    between atoms: CA_1470  and  CB_1473
REMARK  839  A    between atoms: CB_1473  and  CG_1474
REMARK  840  A    between atoms: N_1477  and  CA_1478
REMARK  841  A    between atoms: CA_1478  and  C_1479
REMARK  842  A    between atoms: CA_1478  and  CB_1481
REMARK  843  A    between atoms: CB_1481  and  CG_1482
REMARK  844  A    between atoms: CG_1482  and  CD_1483
REMARK  845  A    between atoms: N_1486  and  CA_1487
REMARK  846  A    between atoms: CA_1487  and  C_1488
REMARK  847  A    between atoms: CA_1487  and  CB_1490
REMARK  848  A    between atoms: CB_1490  and  CG_1491
REMARK  849  A    between atoms: CG_1491  and  CD_1492
REMARK  850  A    between atoms: CD_1492  and  CE_1493
REMARK  851  A    between atoms: CE_1493  and  NZ_1494
REMARK  852  A    between atoms: N_1495  and  CA_1496
REMARK  853  A    between atoms: CA_1496  and  C_1497
REMARK  854  A    between atoms: CA_1496  and  CB_1499
REMARK  855  A    between atoms: CB_1499  and  CG2_1500
REMARK  856  A    between atoms: CB_1499  and  CG1_1501
REMARK  857  A    between atoms: N_1502  and  CA_1503
REMARK  858  A    between atoms: CA_1503  and  C_1504
REMARK  859  A    between atoms: CA_1503  and  CB_1506
REMARK  860  A    between atoms: CB_1506  and  CG_1507
REMARK  861  A    between atoms: N_1510  and  CA_1511
REMARK  862  A    between atoms: CA_1511  and  C_1512
REMARK  863  A    between atoms: CA_1511  and  CB_1514
REMARK  864  A    between atoms: CB_1514  and  CG_1515
REMARK  865  A    between atoms: CG_1515  and  CD2_1516
REMARK  866  A    between atoms: CG_1515  and  CD1_1517
REMARK  867  A    between atoms: N_1518  and  CA_1519
REMARK  868  A    between atoms: CA_1519  and  C_1520
REMARK  869  A    between atoms: CA_1519  and  CB_1522
REMARK  870  A    between atoms: CB_1522  and  CG_1523
REMARK  871  A    between atoms: N_1532  and  CA_1533
REMARK  872  A    between atoms: CA_1533  and  C_1534
REMARK  873  A    between atoms: CA_1533  and  CB_1536
REMARK  874  A    between atoms: CB_1536  and  OG_1537
REMARK  875  A    between atoms: N_1538  and  CA_1539
REMARK  876  A    between atoms: CA_1539  and  C_1540
REMARK  877  A    between atoms: CA_1539  and  CB_1542
REMARK  878  A    between atoms: CB_1542  and  CG_1543
REMARK  879  A    between atoms: CG_1543  and  CD2_1544
REMARK  880  A    between atoms: CG_1543  and  CD1_1545
REMARK  881  A    between atoms: N_1546  and  CA_1547
REMARK  882  A    between atoms: CA_1547  and  C_1548
REMARK  883  A    between atoms: N_1550  and  CA_1551
REMARK  884  A    between atoms: CA_1551  and  C_1552
REMARK  885  A    between atoms: CA_1551  and  CB_1554
REMARK  886  A    between atoms: CB_1554  and  CG2_1555
REMARK  887  A    between atoms: CB_1554  and  CG1_1556
REMARK  888  A    between atoms: N_1557  and  CA_1558
REMARK  889  A    between atoms: CA_1558  and  C_1559
REMARK  890  A    between atoms: CA_1558  and  CB_1561
REMARK  891  A    between atoms: CB_1561  and  CG_1562
REMARK  892  A    between atoms: CG_1562  and  CD1_1563
REMARK  893  A    between atoms: CG_1562  and  CD2_1564
REMARK  894  A    between atoms: N_1565  and  CA_1566
REMARK  895  A    between atoms: CA_1566  and  C_1567
REMARK  896  A    between atoms: CA_1566  and  CB_1569
REMARK  897  A    between atoms: CB_1569  and  SG_1570
REMARK  898  A    between atoms: N_1571  and  CA_1572
REMARK  899  A    between atoms: CA_1572  and  C_1573
REMARK  900  A    between atoms: CA_1572  and  CB_1575
REMARK  901  A    between atoms: CB_1575  and  CG_1576
REMARK  902  A    between atoms: CZ_1581  and  OH_1582
REMARK  903  A    between atoms: N_1583  and  CA_1584
REMARK  904  A    between atoms: CA_1584  and  C_1585
REMARK  905  A    between atoms: CA_1584  and  CB_1587
REMARK  906  A    between atoms: CB_1587  and  CG_1588
REMARK  907  A    between atoms: CG_1588  and  CD_1589
REMARK  908  A    between atoms: N_1592  and  CA_1593
REMARK  909  A    between atoms: CA_1593  and  C_1594
REMARK  910  A    between atoms: CA_1593  and  CB_1596
REMARK  911  A    between atoms: CB_1596  and  CG_1597
REMARK  912  A    between atoms: N_1603  and  CA_1604
REMARK  913  A    between atoms: CA_1604  and  C_1605
REMARK  914  A    between atoms: CA_1604  and  CB_1607
REMARK  915  A    between atoms: CB_1607  and  CG_1608
REMARK  916  A    between atoms: CG_1608  and  CD1_1609
REMARK  917  A    between atoms: CG_1608  and  CD2_1610
REMARK  918  A    between atoms: N_1611  and  CA_1612
REMARK  919  A    between atoms: CA_1612  and  C_1613
REMARK  920  A    between atoms: CA_1612  and  CB_1615
REMARK  921  A    between atoms: CB_1615  and  CG2_1616
REMARK  922  A    between atoms: CB_1615  and  CG1_1617
REMARK  923  A    between atoms: N_1618  and  CA_1619
REMARK  924  A    between atoms: CA_1619  and  C_1620
REMARK  925  A    between atoms: N_1622  and  C_1623
REMARK  926  A    between atoms: C_1623  and  C_1624
REMARK  927  A    between atoms: C_1623  and  C_1626
REMARK  928  A    between atoms: C_1626  and  C_1627
REMARK  929  A    between atoms: C_1627  and  C_1628
REMARK  930  A    between atoms: CA_1630  and  C_1631
REMARK  931  A    between atoms: CA_1637  and  C_1638
REMARK  932  A    between atoms: N_1643  and  CA_1644
REMARK  933  A    between atoms: CA_1644  and  C_1645
REMARK  934  A    between atoms: CA_1644  and  CB_1647
REMARK  935  A    between atoms: CB_1647  and  CG_1648
REMARK  936  A    between atoms: N_1654  and  CA_1655
REMARK  937  A    between atoms: CA_1655  and  C_1656
REMARK  938  A    between atoms: CA_1655  and  CB_1658
REMARK  939  A    between atoms: CB_1658  and  CG_1659
REMARK  940  A    between atoms: CG_1659  and  CD_1660
REMARK  941  A    between atoms: N_1663  and  CA_1664
REMARK  942  A    between atoms: CA_1664  and  C_1665
REMARK  943  A    between atoms: CA_1664  and  CB_1667
REMARK  944  A    between atoms: N_1668  and  CA_1669
REMARK  945  A    between atoms: CA_1669  and  C_1670
REMARK  946  A    between atoms: CA_1669  and  CB_1672
REMARK  947  A    between atoms: CB_1672  and  CG_1673
REMARK  948  A    between atoms: N_1676  and  CA_1677
REMARK  949  A    between atoms: CA_1677  and  C_1678
REMARK  950  A    between atoms: CA_1677  and  CB_1680
REMARK  951  A    between atoms: CB_1680  and  OG1_1681
REMARK  952  A    between atoms: CB_1680  and  CG2_1682
REMARK  953  A    between atoms: N_1683  and  CA_1684
REMARK  954  A    between atoms: CA_1684  and  C_1685
REMARK  955  A    between atoms: CA_1684  and  CB_1687
REMARK  956  A    between atoms: CB_1687  and  CG_1688
REMARK  957  A    between atoms: CZ_1693  and  OH_1694
REMARK  958  A    between atoms: N_1695  and  CA_1696
REMARK  959  A    between atoms: CA_1696  and  C_1697
REMARK  960  A    between atoms: CA_1696  and  CB_1699
REMARK  961  A    between atoms: CB_1699  and  CG_1700
REMARK  962  A    between atoms: CG_1700  and  CD_1701
REMARK  963  A    between atoms: N_1704  and  CA_1705
REMARK  964  A    between atoms: CA_1705  and  C_1706
REMARK  965  A    between atoms: CA_1705  and  CB_1708
REMARK  966  A    between atoms: CB_1708  and  CG_1709
REMARK  967  A    between atoms: CG_1709  and  CD_1710
REMARK  968  A    between atoms: N_1713  and  CA_1714
REMARK  969  A    between atoms: CA_1714  and  C_1715
REMARK  970  A    between atoms: CA_1714  and  CB_1717
REMARK  971  A    between atoms: CB_1717  and  OG1_1718
REMARK  972  A    between atoms: CB_1717  and  CG2_1719
REMARK  973  A    between atoms: N_1720  and  CA_1721
REMARK  974  A    between atoms: CA_1721  and  C_1722
REMARK  975  A    between atoms: CA_1721  and  CB_1724
REMARK  976  A    between atoms: CB_1724  and  CG_1725
REMARK  977  A    between atoms: CZ_1730  and  OH_1731
REMARK  978  A    between atoms: N_1732  and  CA_1733
REMARK  979  A    between atoms: CA_1733  and  C_1734
REMARK  980  A    between atoms: CA_1733  and  CB_1736
REMARK  981  A    between atoms: CB_1736  and  SG_1737
REMARK  982  A    between atoms: N_1738  and  C_1739
REMARK  983  A    between atoms: C_1739  and  C_1740
REMARK  984  A    between atoms: C_1739  and  C_1742
REMARK  985  A    between atoms: C_1742  and  C_1743
REMARK  986  A    between atoms: C_1743  and  C_1744
REMARK  987  A    between atoms: C_1744  and  N_1745
REMARK  988  A    between atoms: N_1746  and  CA_1747
REMARK  989  A    between atoms: CA_1747  and  C_1748
REMARK  990  A    between atoms: CA_1747  and  CB_1750
REMARK  991  A    between atoms: CB_1750  and  CG1_1751
REMARK  992  A    between atoms: CB_1750  and  CG2_1752
REMARK  993  A    between atoms: CG1_1751  and  CD1_1753
REMARK  994  A    between atoms: N_1754  and  C_1755
REMARK  995  A    between atoms: C_1755  and  C_1756
REMARK  996  A    between atoms: C_1755  and  C_1758
REMARK  997  A    between atoms: C_1758  and  O_1759
REMARK  998  A    between atoms: N_1760  and  C_1761
REMARK  999  A    between atoms: C_1761  and  C_1762
REMARK  1000  A    between atoms: C_1761  and  C_1764
REMARK  1001  A    between atoms: C_1764  and  C_1765
REMARK  1002  A    between atoms: C_1765  and  C_1766
REMARK  1003  A    between atoms: C_1766  and  N_1767
REMARK  1004  A    between atoms: N_1771  and  C_1772
REMARK  1005  A    between atoms: C_1772  and  C_1773
REMARK  1006  A    between atoms: C_1772  and  C_1775
REMARK  1007  A    between atoms: C_1775  and  C_1776
REMARK  1008  A    between atoms: C_1775  and  C_1777
REMARK  1009  A    between atoms: N_1778  and  C_1779
REMARK  1010  A    between atoms: C_1779  and  C_1780
REMARK  1011  A    between atoms: C_1779  and  C_1782
REMARK  1012  A    between atoms: C_1782  and  C_1783
REMARK  1013  A    between atoms: C_1783  and  C_1784
REMARK  1014  A    between atoms: N_1787  and  C_1788
REMARK  1015  A    between atoms: C_1788  and  C_1789
REMARK  1016  A    between atoms: C_1788  and  C_1791
REMARK  1017  A    between atoms: C_1791  and  C_1792
REMARK  1018  A    between atoms: N_1798  and  C_1799
REMARK  1019  A    between atoms: C_1799  and  C_1800
REMARK  1020  A    between atoms: C_1799  and  C_1802
REMARK  1021  A    between atoms: C_1802  and  O_1803
REMARK  1022  A    between atoms: C_1802  and  C_1804
REMARK  1023  A    between atoms: N_1805  and  C_1806
REMARK  1024  A    between atoms: C_1806  and  C_1807
REMARK  1025  A    between atoms: C_1806  and  C_1809
REMARK  1026  A    between atoms: C_1809  and  C_1810
REMARK  1027  A    between atoms: C_1817  and  C_1818
REMARK  1028  A    between atoms: N_1823  and  C_1824
REMARK  1029  A    between atoms: C_1824  and  C_1825
REMARK  1030  A    between atoms: C_1824  and  C_1827
REMARK  1031  A    between atoms: C_1827  and  C_1828
REMARK  1032  A    between atoms: N_1831  and  C_1832
REMARK  1033  A    between atoms: C_1832  and  C_1833
REMARK  1034  A    between atoms: C_1832  and  C_1835
REMARK  1035  A    between atoms: C_1835  and  C_1836
REMARK  1036  A    between atoms: N_1842  and  C_1843
REMARK  1037  A    between atoms: C_1843  and  C_1844
REMARK  1038  A    between atoms: C_1843  and  C_1846
REMARK  1039  A    between atoms: C_1846  and  C_1847
REMARK  1040  A    between atoms: C_1846  and  C_1848
REMARK  1041  A    between atoms: N_1849  and  C_1850
REMARK  1042  A    between atoms: C_1850  and  C_1851
REMARK  1043  A    between atoms: C_1850  and  C_1853
REMARK  1044  A    between atoms: C_1853  and  O_1854
REMARK  1045  A    between atoms: C_1853  and  C_1855
REMARK  1046  A    between atoms: N_1856  and  C_1857
REMARK  1047  A    between atoms: C_1858  and  C_1859
REMARK  1048  A    between atoms: C_1858  and  C_1861
REMARK  1049  A    between atoms: C_1862  and  C_1863
REMARK  1050  A    between atoms: C_1862  and  C_1864
REMARK  1051  A    between atoms: C_1863  and  C_1865
REMARK  1052  A    between atoms: N_1871  and  C_1872
REMARK  1053  A    between atoms: C_1872  and  C_1873
REMARK  1054  A    between atoms: N_1875  and  CA_1876
REMARK  1055  A    between atoms: CA_1876  and  C_1877
REMARK  1056  A    between atoms: CA_1876  and  CB_1879
REMARK  1057  A    between atoms: N_1880  and  CA_1881
REMARK  1058  A    between atoms: CA_1881  and  C_1882
REMARK  1059  A    between atoms: CA_1881  and  CB_1884
REMARK  1060  A    between atoms: CB_1884  and  CG_1885
REMARK  1061  A    between atoms: CG_1885  and  CD_1886
REMARK  1062  A    between atoms: CD_1886  and  NE_1887
REMARK  1063  A    between atoms: N_1891  and  CA_1892
REMARK  1064  A    between atoms: CA_1892  and  C_1893
REMARK  1065  A    between atoms: CA_1892  and  CB_1895
REMARK  1066  A    between atoms: CB_1895  and  CG_1896
REMARK  1067  A    between atoms: N_1899  and  CA_1900
REMARK  1068  A    between atoms: CA_1900  and  C_1901
REMARK  1069  A    between atoms: CA_1900  and  CB_1903
REMARK  1070  A    between atoms: CB_1903  and  CG_1904
REMARK  1071  A    between atoms: CG_1904  and  CD1_1905
REMARK  1072  A    between atoms: CG_1904  and  CD2_1906
REMARK  1073  A    between atoms: N_1907  and  CA_1908
REMARK  1074  A    between atoms: CA_1908  and  C_1909
REMARK  1075  A    between atoms: CA_1908  and  CB_1911
REMARK  1076  A    between atoms: CB_1911  and  CG1_1912
REMARK  1077  A    between atoms: CB_1911  and  CG2_1913
REMARK  1078  A    between atoms: CG1_1912  and  CD1_1914
REMARK  1079  A    between atoms: N_1915  and  CA_1916
REMARK  1080  A    between atoms: CA_1916  and  C_1917
REMARK  1081  A    between atoms: CA_1916  and  CB_1919
REMARK  1082  A    between atoms: CB_1919  and  OG_1920
REMARK  1083  A    between atoms: N_1921  and  CA_1922
REMARK  1084  A    between atoms: CA_1922  and  C_1923
REMARK  1085  A    between atoms: CA_1922  and  CB_1925
REMARK  1086  A    between atoms: CB_1925  and  CG_1926
REMARK  1087  A    between atoms: CG_1926  and  CD_1927
REMARK  1088  A    between atoms: CD_1927  and  NE_1928
REMARK  1089  A    between atoms: N_1932  and  CA_1933
REMARK  1090  A    between atoms: CA_1933  and  C_1934
REMARK  1091  A    between atoms: CA_1933  and  CB_1936
REMARK  1092  A    between atoms: CB_1936  and  CG_1937
REMARK  1093  A    between atoms: CG_1937  and  CD2_1938
REMARK  1094  A    between atoms: CG_1937  and  CD1_1939
REMARK  1095  A    between atoms: N_1940  and  CA_1941
REMARK  1096  A    between atoms: CA_1941  and  C_1942
REMARK  1097  A    between atoms: CA_1941  and  CB_1944
REMARK  1098  A    between atoms: CB_1944  and  CG_1945
REMARK  1099  A    between atoms: CG_1945  and  CD2_1946
REMARK  1100  A    between atoms: CG_1945  and  CD1_1947
REMARK  1101  A    between atoms: N_1948  and  CA_1949
REMARK  1102  A    between atoms: CA_1949  and  C_1950
REMARK  1103  A    between atoms: CA_1949  and  CB_1952
REMARK  1104  A    between atoms: CB_1952  and  CG_1953
REMARK  1105  A    between atoms: CG_1953  and  CD_1954
REMARK  1106  A    between atoms: CD_1954  and  CE_1955
REMARK  1107  A    between atoms: CE_1955  and  NZ_1956
REMARK  1108  A    between atoms: N_1957  and  CA_1958
REMARK  1109  A    between atoms: CA_1958  and  C_1959
REMARK  1110  A    between atoms: CA_1958  and  CB_1961
REMARK  1111  A    between atoms: CB_1961  and  CG_1962
REMARK  1112  A    between atoms: N_1967  and  CA_1968
REMARK  1113  A    between atoms: CA_1968  and  C_1969
REMARK  1114  A    between atoms: CA_1968  and  CB_1971
REMARK  1115  A    between atoms: CB_1971  and  CG_1972
REMARK  1116  A    between atoms: CA_1976  and  C_1977
REMARK  1117  A    between atoms: N_1982  and  C_1983
REMARK  1118  A    between atoms: C_1983  and  C_1984
REMARK  1119  A    between atoms: C_1983  and  C_1986
REMARK  1120  A    between atoms: C_1986  and  O_1987
REMARK  1121  A    between atoms: N_1988  and  C_1989
REMARK  1122  A    between atoms: C_1989  and  C_1990
REMARK  1123  A    between atoms: C_1989  and  C_1992
REMARK  1124  A    between atoms: C_1992  and  C_1993
REMARK  1125  A    between atoms: C_1993  and  C_1994
REMARK  1126  A    between atoms: N_1997  and  C_1998
REMARK  1127  A    between atoms: C_1998  and  C_1999
REMARK  1128  A    between atoms: C_1998  and  C_2001
REMARK  1129  A    between atoms: C_2001  and  C_2002
REMARK  1130  A    between atoms: C_2002  and  C_2003
REMARK  1131  A    between atoms: C_2003  and  N_2004
REMARK  1132  A    between atoms: C_2009  and  C_2010
REMARK  1133  A    between atoms: N_2015  and  C_2017
REMARK  1134  A    between atoms: C_2016  and  C_2018
REMARK  1135  A    between atoms: C_2016  and  C_2021
REMARK  1136  A    between atoms: C_2021  and  C_2022
REMARK  1137  A    between atoms: C_2022  and  C_2023
REMARK  1138  A    between atoms: C_2023  and  S_2024
REMARK  1139  A    between atoms: C_2023  and  S_2025
REMARK  1140  A    between atoms: S_2024  and  C_2026
REMARK  1141  A    between atoms: S_2025  and  C_2027
REMARK  1142  A    between atoms: N_2028  and  CA_2029
REMARK  1143  A    between atoms: CA_2029  and  C_2030
REMARK  1144  A    between atoms: CA_2029  and  CB_2032
REMARK  1145  A    between atoms: CB_2032  and  CG_2033
REMARK  1146  A    between atoms: CG_2033  and  CD1_2034
REMARK  1147  A    between atoms: CG_2033  and  CD2_2035
REMARK  1148  A    between atoms: N_2036  and  CA_2037
REMARK  1149  A    between atoms: CA_2037  and  C_2038
REMARK  1150  A    between atoms: CA_2037  and  CB_2040
REMARK  1151  A    between atoms: N_2041  and  CA_2042
REMARK  1152  A    between atoms: CA_2042  and  C_2043
REMARK  1153  A    between atoms: CA_2042  and  CB_2045
REMARK  1154  A    between atoms: CB_2045  and  CG_2046
REMARK  1155  A    between atoms: CG_2046  and  CD_2047
REMARK  1156  A    between atoms: N_2050  and  CA_2051
REMARK  1157  A    between atoms: CA_2051  and  C_2052
REMARK  1158  A    between atoms: CA_2051  and  CB_2054
REMARK  1159  A    between atoms: CB_2054  and  CG2_2055
REMARK  1160  A    between atoms: CB_2054  and  CG1_2056
REMARK  1161  A    between atoms: N_2057  and  CA_2058
REMARK  1162  A    between atoms: CA_2058  and  C_2059
REMARK  1163  A    between atoms: CA_2058  and  CB_2061
REMARK  1164  A    between atoms: CB_2061  and  CG_2062
REMARK  1165  A    between atoms: CG_2062  and  CD1_2063
REMARK  1166  A    between atoms: CG_2062  and  CD2_2064
REMARK  1167  A    between atoms: N_2065  and  CA_2066
REMARK  1168  A    between atoms: CA_2066  and  C_2067
REMARK  1169  A    between atoms: CA_2066  and  CB_2069
REMARK  1170  A    between atoms: CB_2069  and  CG_2070
REMARK  1171  A    between atoms: CG_2070  and  CD_2071
REMARK  1172  A    between atoms: N_2074  and  CA_2075
REMARK  1173  A    between atoms: CA_2075  and  C_2076
REMARK  1174  A    between atoms: CA_2075  and  CB_2078
REMARK  1175  A    between atoms: CB_2078  and  CG_2079
REMARK  1176  A    between atoms: CA_2085  and  C_2086
REMARK  1177  A    between atoms: N_2091  and  CA_2092
REMARK  1178  A    between atoms: CA_2092  and  C_2093
REMARK  1179  A    between atoms: CA_2092  and  CB_2095
REMARK  1180  A    between atoms: CB_2095  and  CG_2096
REMARK  1181  A    between atoms: N_2105  and  CA_2106
REMARK  1182  A    between atoms: CA_2106  and  C_2107
REMARK  1183  A    between atoms: CA_2106  and  CB_2109
REMARK  1184  A    between atoms: CB_2109  and  CG1_2110
REMARK  1185  A    between atoms: CB_2109  and  CG2_2111
REMARK  1186  A    between atoms: CG1_2110  and  CD1_2112
REMARK  1187  A    between atoms: N_2113  and  CA_2114
REMARK  1188  A    between atoms: CA_2114  and  C_2115
REMARK  1189  A    between atoms: CA_2114  and  CB_2117
REMARK  1190  A    between atoms: CB_2117  and  OG1_2118
REMARK  1191  A    between atoms: CB_2117  and  CG2_2119
REMARK  1192  A    between atoms: N_2120  and  CA_2121
REMARK  1193  A    between atoms: CA_2121  and  C_2122
REMARK  1194  A    between atoms: CA_2121  and  CB_2124
REMARK  1195  A    between atoms: N_2125  and  CA_2126
REMARK  1196  A    between atoms: CA_2126  and  C_2127
REMARK  1197  A    between atoms: CA_2126  and  CB_2129
REMARK  1198  A    between atoms: CB_2129  and  CG_2130
REMARK  1199  A    between atoms: N_2133  and  CA_2134
REMARK  1200  A    between atoms: CA_2134  and  C_2135
REMARK  1201  A    between atoms: CA_2134  and  CB_2137
REMARK  1202  A    between atoms: CB_2137  and  OG_2138
REMARK  1203  A    between atoms: N_2139  and  CA_2140
REMARK  1204  A    between atoms: CA_2140  and  C_2141
REMARK  1205  A    between atoms: CA_2140  and  CB_2143
REMARK  1206  A    between atoms: CB_2143  and  OG_2144
REMARK  1207  A    between atoms: N_2145  and  C_2146
REMARK  1208  A    between atoms: C_2146  and  C_2147
REMARK  1209  A    between atoms: C_2146  and  C_2149
REMARK  1210  A    between atoms: C_2149  and  C_2150
REMARK  1211  A    between atoms: N_2151  and  CA_2152
REMARK  1212  A    between atoms: CA_2152  and  C_2153
REMARK  1213  A    between atoms: CA_2152  and  CB_2155
REMARK  1214  A    between atoms: CB_2155  and  OG_2156
REMARK  1215  A    between atoms: N_2157  and  CA_2158
REMARK  1216  A    between atoms: CA_2158  and  C_2159
REMARK  1217  A    between atoms: CA_2158  and  CB_2161
REMARK  1218  A    between atoms: CB_2161  and  CG_2162
REMARK  1219  A    between atoms: CG_2162  and  CD_2163
REMARK  1220  A    between atoms: CA_2167  and  C_2168
REMARK  1221  A    between atoms: CA_2174  and  C_2175
REMARK  1222  A    between atoms: N_2180  and  CA_2181
REMARK  1223  A    between atoms: CA_2181  and  C_2182
REMARK  1224  A    between atoms: CA_2181  and  CB_2184
REMARK  1225  A    between atoms: CB_2184  and  OG_2185
REMARK  1226  A    between atoms: N_2186  and  CA_2187
REMARK  1227  A    between atoms: CA_2187  and  C_2188
REMARK  1228  A    between atoms: CA_2187  and  CB_2190
REMARK  1229  A    between atoms: CB_2190  and  CG_2191
REMARK  1230  A    between atoms: N_2200  and  CA_2201
REMARK  1231  A    between atoms: CA_2201  and  C_2202
REMARK  1232  A    between atoms: CA_2201  and  CB_2204
REMARK  1233  A    between atoms: CB_2204  and  CG2_2205
REMARK  1234  A    between atoms: CB_2204  and  CG1_2206
REMARK  1235  A    between atoms: N_2207  and  CA_2208
REMARK  1236  A    between atoms: CA_2208  and  C_2209
REMARK  1237  A    between atoms: CA_2208  and  CB_2211
REMARK  1238  A    between atoms: CB_2211  and  OG1_2212
REMARK  1239  A    between atoms: CB_2211  and  CG2_2213
REMARK  1240  A    between atoms: N_2214  and  CA_2215
REMARK  1241  A    between atoms: CA_2215  and  C_2216
REMARK  1242  A    between atoms: CA_2215  and  CB_2218
REMARK  1243  A    between atoms: CB_2218  and  CG_2219
REMARK  1244  A    between atoms: CG_2219  and  CD_2220
REMARK  1245  A    between atoms: N_2223  and  CA_2224
REMARK  1246  A    between atoms: CA_2224  and  C_2225
REMARK  1247  A    between atoms: CA_2224  and  CB_2227
REMARK  1248  A    between atoms: CB_2227  and  CG_2228
REMARK  1249  A    between atoms: CG_2228  and  SD_2229
REMARK  1250  A    between atoms: SD_2229  and  CE_2230
REMARK  1251  A    between atoms: N_2231  and  CA_2232
REMARK  1252  A    between atoms: CA_2232  and  C_2233
REMARK  1253  A    between atoms: CA_2232  and  CB_2235
REMARK  1254  A    between atoms: CB_2235  and  CG_2236
REMARK  1255  A    between atoms: CG_2236  and  CD1_2237
REMARK  1256  A    between atoms: CG_2236  and  CD2_2238
REMARK  1257  A    between atoms: N_2239  and  CA_2240
REMARK  1258  A    between atoms: CA_2240  and  C_2241
REMARK  1259  A    between atoms: CA_2240  and  CB_2243
REMARK  1260  A    between atoms: CB_2243  and  CG_2244
REMARK  1261  A    between atoms: CG_2244  and  CD1_2245
REMARK  1262  A    between atoms: CG_2244  and  CD2_2246
REMARK  1263  A    between atoms: N_2247  and  CA_2248
REMARK  1264  A    between atoms: CA_2248  and  C_2249
REMARK  1265  A    between atoms: CA_2248  and  CB_2251
REMARK  1266  A    between atoms: CB_2251  and  CG_2252
REMARK  1267  A    between atoms: CG_2252  and  CD_2253
REMARK  1268  A    between atoms: N_2256  and  CA_2257
REMARK  1269  A    between atoms: CA_2257  and  C_2258
REMARK  1270  A    between atoms: CA_2257  and  CB_2260
REMARK  1271  A    between atoms: CB_2260  and  CG_2261
REMARK  1272  A    between atoms: CG_2261  and  CD_2262
REMARK  1273  A    between atoms: CD_2262  and  CE_2263
REMARK  1274  A    between atoms: CE_2263  and  NZ_2264
REMARK  1275  A    between atoms: N_2265  and  C_2266
REMARK  1276  A    between atoms: C_2266  and  C_2267
REMARK  1277  A    between atoms: C_2266  and  C_2269
REMARK  1278  A    between atoms: C_2269  and  C_2270
REMARK  1279  A    between atoms: N_2271  and  CA_2272
REMARK  1280  A    between atoms: CA_2272  and  C_2273
REMARK  1281  A    between atoms: CA_2272  and  CB_2275
REMARK  1282  A    between atoms: CB_2275  and  CG_2276
REMARK  1283  A    between atoms: CG_2276  and  CD2_2277
REMARK  1284  A    between atoms: CG_2276  and  CD1_2278
REMARK  1285  A    between atoms: N_2279  and  CA_2280
REMARK  1286  A    between atoms: CA_2280  and  C_2281
REMARK  1287  A    between atoms: CA_2280  and  CB_2283
REMARK  1288  A    between atoms: CB_2283  and  CG_2284
REMARK  1289  A    between atoms: N_2293  and  CA_2294
REMARK  1290  A    between atoms: CA_2294  and  C_2295
REMARK                            x       y       z     vdW  Elec       q    Type
REMARK                         _______ _______ _______ _____ _____    ______ ____
ROOT
ATOM      1  C   UNL     1     -29.369  33.297  -3.213  0.00  0.00    -0.000 C 
ENDROOT
TORSDOF 0
REMARK  Name = /Users/wangyang/Desktop/Breast_cancer_brain_metastasis/wang_Gene/AIDD/15_Protein_ligand_docking/data_7ztl/protein.pdb
REMARK  1290 active torsions:
REMARK  status: ('A' for Active; 'I' for Inactive)
REMARK    1  A    between atoms: N_1  and  CA_2
REMARK    2  A    between atoms: CA_2  and  C_3
REMARK    3  A    between atoms: N_5  and  CA_6
REMARK    4  A    between atoms: CA_6  and  C_7
REMARK    5  A    between atoms: CA_6  and  CB_9
REMARK    6  A    between atoms: N_10  and  CA_11
REMARK    7  A    between atoms: CA_11  and  C_12
REMARK    8  A    between atoms: CA_11  and  CB_14
REMARK    9  A    between atoms: CB_14  and  CG_15
REMARK   10  A    between atoms: N_24  and  CA_25
REMARK   11  A    between atoms: CA_25  and  C_26
REMARK   12  A    between atoms: CA_25  and  CB_28
REMARK   13  A    between atoms: N_29  and  CA_30
REMARK   14  A    between atoms: CA_30  and  C_31
REMARK   15  A    between atoms: CA_30  and  CB_33
REMARK   16  A    between atoms: CB_33  and  CG_34
REMARK   17  A    between atoms: CG_34  and  CD1_35
REMARK   18  A    between atoms: CG_34  and  CD2_36
REMARK   19  A    between atoms: N_37  and  CA_38
REMARK   20  A    between atoms: CA_38  and  C_39
REMARK   21  A    between atoms: CA_38  and  CB_41
REMARK   22  A    between atoms: CB_41  and  CG_42
REMARK   23  A    between atoms: CG_42  and  CD_43
REMARK   24  A    between atoms: N_46  and  CA_47
REMARK   25  A    between atoms: CA_47  and  C_48
REMARK   26  A    between atoms: CA_47  and  CB_50
REMARK   27  A    between atoms: CB_50  and  CG_51
REMARK   28  A    between atoms: N_54  and  CA_55
REMARK   29  A    between atoms: CA_55  and  C_56
REMARK   30  A    between atoms: CA_55  and  CB_58
REMARK   31  A    between atoms: CB_58  and  CG_59
REMARK   32  A    between atoms: N_65  and  CA_66
REMARK   33  A    between atoms: CA_66  and  C_67
REMARK   34  A    between atoms: CA_66  and  CB_69
REMARK   35  A    between atoms: CB_69  and  CG_70
REMARK   36  A    between atoms: CG_70  and  CD_71
REMARK   37  A    between atoms: N_74  and  CA_75
REMARK   38  A    between atoms: CA_75  and  C_76
REMARK   39  A    between atoms: CA_75  and  CB_78
REMARK   40  A    between atoms: CB_78  and  CG1_79
REMARK   41  A    between atoms: CB_78  and  CG2_80
REMARK   42  A    between atoms: CG1_79  and  CD1_81
REMARK   43  A    between atoms: N_82  and  CA_83
REMARK   44  A    between atoms: CA_83  and  C_84
REMARK   45  A    between atoms: N_86  and  CA_87
REMARK   46  A    between atoms: CA_87  and  C_88
REMARK   47  A    between atoms: CA_87  and  CB_90
REMARK   48  A    between atoms: CB_90  and  CG_91
REMARK   49  A    between atoms: CG_91  and  CD_92
REMARK   50  A    between atoms: CD_92  and  NE_93
REMARK   51  A    between atoms: CA_98  and  C_99
REMARK   52  A    between atoms: N_104  and  CA_105
REMARK   53  A    between atoms: CA_105  and  C_106
REMARK   54  A    between atoms: CA_105  and  CB_108
REMARK   55  A    between atoms: CB_108  and  CG_109
REMARK   56  A    between atoms: CG_109  and  CD1_110
REMARK   57  A    between atoms: CG_109  and  CD2_111
REMARK   58  A    between atoms: N_112  and  CA_113
REMARK   59  A    between atoms: CA_113  and  C_114
REMARK   60  A    between atoms: N_116  and  C_117
REMARK   61  A    between atoms: C_117  and  C_118
REMARK   62  A    between atoms: C_117  and  C_120
REMARK   63  A    between atoms: C_120  and  C_121
REMARK   64  A    between atoms: C_121  and  C_122
REMARK   65  A    between atoms: N_123  and  CA_124
REMARK   66  A    between atoms: CA_124  and  C_125
REMARK   67  A    between atoms: N_127  and  CA_128
REMARK   68  A    between atoms: CA_128  and  C_129
REMARK   69  A    between atoms: CA_128  and  CB_131
REMARK   70  A    between atoms: CB_131  and  CG_132
REMARK   71  A    between atoms: CG_132  and  CD_133
REMARK   72  A    between atoms: CD_133  and  CE_134
REMARK   73  A    between atoms: CE_134  and  NZ_135
REMARK   74  A    between atoms: N_136  and  CA_137
REMARK   75  A    between atoms: CA_137  and  C_138
REMARK   76  A    between atoms: CA_137  and  CB_140
REMARK   77  A    between atoms: CB_140  and  CG_141
REMARK   78  A    between atoms: N_147  and  CA_148
REMARK   79  A    between atoms: CA_148  and  C_149
REMARK   80  A    between atoms: N_151  and  CA_152
REMARK   81  A    between atoms: CA_152  and  C_153
REMARK   82  A    between atoms: CA_152  and  CB_155
REMARK   83  A    between atoms: CB_155  and  CG_156
REMARK   84  A    between atoms: N_159  and  CA_160
REMARK   85  A    between atoms: CA_160  and  C_161
REMARK   86  A    between atoms: CA_160  and  CB_163
REMARK   87  A    between atoms: CB_163  and  CG1_164
REMARK   88  A    between atoms: CB_163  and  CG2_165
REMARK   89  A    between atoms: N_166  and  CA_167
REMARK   90  A    between atoms: CA_167  and  C_168
REMARK   91  A    between atoms: CA_167  and  CB_170
REMARK   92  A    between atoms: CB_170  and  CG_171
REMARK   93  A    between atoms: CZ_176  and  OH_177
REMARK   94  A    between atoms: N_178  and  CA_179
REMARK   95  A    between atoms: CA_179  and  C_180
REMARK   96  A    between atoms: CA_179  and  CB_182
REMARK   97  A    between atoms: CB_182  and  CG_183
REMARK   98  A    between atoms: CG_183  and  CD1_184
REMARK   99  A    between atoms: CG_183  and  CD2_185
REMARK  100  A    between atoms: N_186  and  CA_187
REMARK  101  A    between atoms: CA_187  and  C_188
REMARK  102  A    between atoms: CA_187  and  CB_190
REMARK  103  A    between atoms: N_191  and  CA_192
REMARK  104  A    between atoms: CA_192  and  C_193
REMARK  105  A    between atoms: CA_192  and  CB_195
REMARK  106  A    between atoms: CB_195  and  CG_196
REMARK  107  A    between atoms: CG_196  and  CD_197
REMARK  108  A    between atoms: CD_197  and  NE_198
REMARK  109  A    between atoms: N_202  and  CA_203
REMARK  110  A    between atoms: CA_203  and  C_204
REMARK  111  A    between atoms: CA_203  and  CB_206
REMARK  112  A    between atoms: CB_206  and  CG_207
REMARK  113  A    between atoms: CG_207  and  CD_208
REMARK  114  A    between atoms: N_211  and  CA_212
REMARK  115  A    between atoms: CA_212  and  C_213
REMARK  116  A    between atoms: CA_212  and  CB_215
REMARK  117  A    between atoms: CB_215  and  CG_216
REMARK  118  A    between atoms: CG_216  and  CD_217
REMARK  119  A    between atoms: CD_217  and  CE_218
REMARK  120  A    between atoms: CE_218  and  NZ_219
REMARK  121  A    between atoms: N_220  and  CA_221
REMARK  122  A    between atoms: CA_221  and  C_222
REMARK  123  A    between atoms: CA_221  and  CB_224
REMARK  124  A    between atoms: N_225  and  CA_226
REMARK  125  A    between atoms: CA_226  and  C_227
REMARK  126  A    between atoms: CA_226  and  CB_229
REMARK  127  A    between atoms: CB_229  and  OG_230
REMARK  128  A    between atoms: N_231  and  CA_232
REMARK  129  A    between atoms: CA_232  and  C_233
REMARK  130  A    between atoms: CA_232  and  CB_235
REMARK  131  A    between atoms: CB_235  and  CG_236
REMARK  132  A    between atoms: CG_236  and  CD_237
REMARK  133  A    between atoms: CD_237  and  CE_238
REMARK  134  A    between atoms: CE_238  and  NZ_239
REMARK  135  A    between atoms: N_240  and  CA_241
REMARK  136  A    between atoms: CA_241  and  C_242
REMARK  137  A    between atoms: CA_241  and  CB_244
REMARK  138  A    between atoms: CB_244  and  CG_245
REMARK  139  A    between atoms: N_251  and  CA_252
REMARK  140  A    between atoms: CA_252  and  C_253
REMARK  141  A    between atoms: CA_252  and  CB_255
REMARK  142  A    between atoms: CB_255  and  CG1_256
REMARK  143  A    between atoms: CB_255  and  CG2_257
REMARK  144  A    between atoms: CG1_256  and  CD1_258
REMARK  145  A    between atoms: N_259  and  CA_260
REMARK  146  A    between atoms: CA_260  and  C_261
REMARK  147  A    between atoms: CA_260  and  CB_263
REMARK  148  A    between atoms: CB_263  and  CG_264
REMARK  149  A    between atoms: CG_264  and  CD1_265
REMARK  150  A    between atoms: CG_264  and  CD2_266
REMARK  151  A    between atoms: N_267  and  CA_268
REMARK  152  A    between atoms: CA_268  and  C_269
REMARK  153  A    between atoms: CA_268  and  CB_271
REMARK  154  A    between atoms: N_272  and  CA_273
REMARK  155  A    between atoms: CA_273  and  C_274
REMARK  156  A    between atoms: CA_273  and  CB_276
REMARK  157  A    between atoms: CB_276  and  CG_277
REMARK  158  A    between atoms: CG_277  and  CD2_278
REMARK  159  A    between atoms: CG_277  and  CD1_279
REMARK  160  A    between atoms: N_280  and  CA_281
REMARK  161  A    between atoms: CA_281  and  C_282
REMARK  162  A    between atoms: CA_281  and  CB_284
REMARK  163  A    between atoms: CB_284  and  CG_285
REMARK  164  A    between atoms: CG_285  and  CD_286
REMARK  165  A    between atoms: CD_286  and  CE_287
REMARK  166  A    between atoms: CE_287  and  NZ_288
REMARK  167  A    between atoms: N_289  and  CA_290
REMARK  168  A    between atoms: CA_290  and  C_291
REMARK  169  A    between atoms: CA_290  and  CB_293
REMARK  170  A    between atoms: CB_293  and  CG2_294
REMARK  171  A    between atoms: CB_293  and  CG1_295
REMARK  172  A    between atoms: N_296  and  CA_297
REMARK  173  A    between atoms: CA_297  and  C_298
REMARK  174  A    between atoms: CA_297  and  CB_300
REMARK  175  A    between atoms: CB_300  and  CG_301
REMARK  176  A    between atoms: CG_301  and  CD1_302
REMARK  177  A    between atoms: CG_301  and  CD2_303
REMARK  178  A    between atoms: N_304  and  CA_305
REMARK  179  A    between atoms: CA_305  and  C_306
REMARK  180  A    between atoms: CA_305  and  CB_308
REMARK  181  A    between atoms: CB_308  and  CG_309
REMARK  182  A    between atoms: N_315  and  CA_316
REMARK  183  A    between atoms: CA_316  and  C_317
REMARK  184  A    between atoms: CA_316  and  CB_319
REMARK  185  A    between atoms: CB_319  and  CG_320
REMARK  186  A    between atoms: CG_320  and  CD_321
REMARK  187  A    between atoms: CD_321  and  CE_322
REMARK  188  A    between atoms: CE_322  and  NZ_323
REMARK  189  A    between atoms: N_324  and  CA_325
REMARK  190  A    between atoms: CA_325  and  C_326
REMARK  191  A    between atoms: CA_325  and  CB_328
REMARK  192  A    between atoms: N_329  and  CA_330
REMARK  193  A    between atoms: CA_330  and  C_331
REMARK  194  A    between atoms: CA_330  and  CB_333
REMARK  195  A    between atoms: CB_333  and  CG_334
REMARK  196  A    between atoms: CG_334  and  CD_335
REMARK  197  A    between atoms: N_338  and  CA_339
REMARK  198  A    between atoms: CA_339  and  C_340
REMARK  199  A    between atoms: CA_339  and  CB_342
REMARK  200  A    between atoms: CB_342  and  CG_343
REMARK  201  A    between atoms: CG_343  and  CD1_344
REMARK  202  A    between atoms: CG_343  and  CD2_345
REMARK  203  A    between atoms: N_346  and  CA_347
REMARK  204  A    between atoms: CA_347  and  C_348
REMARK  205  A    between atoms: CA_347  and  CB_350
REMARK  206  A    between atoms: CB_350  and  CG_351
REMARK  207  A    between atoms: CG_351  and  CD_352
REMARK  208  A    between atoms: N_355  and  C_356
REMARK  209  A    between atoms: C_356  and  C_357
REMARK  210  A    between atoms: C_356  and  C_359
REMARK  211  A    between atoms: C_359  and  C_360
REMARK  212  A    between atoms: N_361  and  CA_362
REMARK  213  A    between atoms: CA_362  and  C_363
REMARK  214  A    between atoms: CA_362  and  CB_365
REMARK  215  A    between atoms: N_366  and  CA_367
REMARK  216  A    between atoms: CA_367  and  C_368
REMARK  217  A    between atoms: N_370  and  CA_371
REMARK  218  A    between atoms: CA_371  and  C_372
REMARK  219  A    between atoms: CA_371  and  CB_374
REMARK  220  A    between atoms: CB_374  and  CG2_375
REMARK  221  A    between atoms: CB_374  and  CG1_376
REMARK  222  A    between atoms: N_377  and  CA_378
REMARK  223  A    between atoms: CA_378  and  C_379
REMARK  224  A    between atoms: CA_378  and  CB_381
REMARK  225  A    between atoms: CB_381  and  CG_382
REMARK  226  A    between atoms: CG_382  and  CD_383
REMARK  227  A    between atoms: N_386  and  CA_387
REMARK  228  A    between atoms: CA_387  and  C_388
REMARK  229  A    between atoms: CA_387  and  CB_390
REMARK  230  A    between atoms: CB_390  and  CG_391
REMARK  231  A    between atoms: N_396  and  CA_397
REMARK  232  A    between atoms: CA_397  and  C_398
REMARK  233  A    between atoms: CA_397  and  CB_400
REMARK  234  A    between atoms: CB_400  and  CG_401
REMARK  235  A    between atoms: CG_401  and  CD_402
REMARK  236  A    between atoms: N_405  and  CA_406
REMARK  237  A    between atoms: CA_406  and  C_407
REMARK  238  A    between atoms: CA_406  and  CB_409
REMARK  239  A    between atoms: CB_409  and  CG_410
REMARK  240  A    between atoms: CG_410  and  CD2_411
REMARK  241  A    between atoms: CG_410  and  CD1_412
REMARK  242  A    between atoms: N_413  and  CA_414
REMARK  243  A    between atoms: CA_414  and  C_415
REMARK  244  A    between atoms: CA_414  and  CB_417
REMARK  245  A    between atoms: CB_417  and  CG_418
REMARK  246  A    between atoms: CG_418  and  CD_419
REMARK  247  A    between atoms: CD_419  and  NE_420
REMARK  248  A    between atoms: N_424  and  CA_425
REMARK  249  A    between atoms: CA_425  and  C_426
REMARK  250  A    between atoms: CA_425  and  CB_428
REMARK  251  A    between atoms: CB_428  and  CG_429
REMARK  252  A    between atoms: CG_429  and  CD_430
REMARK  253  A    between atoms: CD_430  and  NE_431
REMARK  254  A    between atoms: N_435  and  CA_436
REMARK  255  A    between atoms: CA_436  and  C_437
REMARK  256  A    between atoms: CA_436  and  CB_439
REMARK  257  A    between atoms: CB_439  and  CG_440
REMARK  258  A    between atoms: CG_440  and  CD_441
REMARK  259  A    between atoms: N_444  and  CA_445
REMARK  260  A    between atoms: CA_445  and  C_446
REMARK  261  A    between atoms: CA_445  and  CB_448
REMARK  262  A    between atoms: CB_448  and  CG1_449
REMARK  263  A    between atoms: CB_448  and  CG2_450
REMARK  264  A    between atoms: N_451  and  C_452
REMARK  265  A    between atoms: C_452  and  C_453
REMARK  266  A    between atoms: C_452  and  C_455
REMARK  267  A    between atoms: C_455  and  C_456
REMARK  268  A    between atoms: N_457  and  CA_458
REMARK  269  A    between atoms: CA_458  and  C_459
REMARK  270  A    between atoms: CA_458  and  CB_461
REMARK  271  A    between atoms: CB_461  and  CG1_462
REMARK  272  A    between atoms: CB_461  and  CG2_463
REMARK  273  A    between atoms: CG1_462  and  CD1_464
REMARK  274  A    between atoms: N_465  and  CA_466
REMARK  275  A    between atoms: CA_466  and  C_467
REMARK  276  A    between atoms: CA_466  and  CB_469
REMARK  277  A    between atoms: CB_469  and  CG_470
REMARK  278  A    between atoms: CG_470  and  CD_471
REMARK  279  A    between atoms: N_474  and  C_475
REMARK  280  A    between atoms: C_475  and  C_476
REMARK  281  A    between atoms: C_475  and  C_478
REMARK  282  A    between atoms: C_478  and  O_479
REMARK  283  A    between atoms: N_480  and  C_481
REMARK  284  A    between atoms: C_481  and  C_482
REMARK  285  A    between atoms: C_481  and  C_484
REMARK  286  A    between atoms: C_484  and  C_485
REMARK  287  A    between atoms: N_490  and  C_491
REMARK  288  A    between atoms: C_491  and  C_492
REMARK  289  A    between atoms: C_491  and  C_494
REMARK  290  A    between atoms: C_494  and  C_495
REMARK  291  A    between atoms: C_495  and  C_496
REMARK  292  A    between atoms: C_495  and  C_497
REMARK  293  A    between atoms: N_498  and  C_499
REMARK  294  A    between atoms: C_499  and  C_500
REMARK  295  A    between atoms: C_499  and  C_502
REMARK  296  A    between atoms: C_502  and  C_503
REMARK  297  A    between atoms: C_503  and  C_504
REMARK  298  A    between atoms: C_504  and  N_505
REMARK  299  A    between atoms: N_509  and  C_510
REMARK  300  A    between atoms: C_510  and  C_511
REMARK  301  A    between atoms: C_510  and  C_513
REMARK  302  A    between atoms: C_513  and  C_514
REMARK  303  A    between atoms: C_520  and  C_521
REMARK  304  A    between atoms: N_526  and  C_527
REMARK  305  A    between atoms: C_527  and  C_528
REMARK  306  A    between atoms: C_527  and  C_530
REMARK  307  A    between atoms: C_530  and  C_531
REMARK  308  A    between atoms: N_534  and  C_535
REMARK  309  A    between atoms: C_535  and  C_536
REMARK  310  A    between atoms: C_535  and  C_538
REMARK  311  A    between atoms: C_538  and  C_539
REMARK  312  A    between atoms: C_538  and  C_540
REMARK  313  A    between atoms: C_539  and  C_541
REMARK  314  A    between atoms: N_542  and  C_543
REMARK  315  A    between atoms: C_543  and  C_544
REMARK  316  A    between atoms: C_543  and  C_546
REMARK  317  A    between atoms: C_546  and  C_547
REMARK  318  A    between atoms: C_547  and  C_548
REMARK  319  A    between atoms: C_547  and  C_549
REMARK  320  A    between atoms: N_550  and  C_551
REMARK  321  A    between atoms: C_551  and  C_552
REMARK  322  A    between atoms: C_551  and  C_554
REMARK  323  A    between atoms: C_554  and  C_555
REMARK  324  A    between atoms: C_555  and  C_556
REMARK  325  A    between atoms: C_556  and  N_557
REMARK  326  A    between atoms: N_561  and  C_562
REMARK  327  A    between atoms: C_562  and  C_567
REMARK  328  A    between atoms: C_563  and  C_564
REMARK  329  A    between atoms: C_568  and  C_569
REMARK  330  A    between atoms: C_568  and  C_571
REMARK  331  A    between atoms: C_569  and  C_572
REMARK  332  A    between atoms: C_569  and  C_573
REMARK  333  A    between atoms: C_570  and  C_573
REMARK  334  A    between atoms: N_574  and  CA_575
REMARK  335  A    between atoms: CA_575  and  C_576
REMARK  336  A    between atoms: CA_575  and  CB_578
REMARK  337  A    between atoms: CB_578  and  CG_579
REMARK  338  A    between atoms: CZ_584  and  OH_585
REMARK  339  A    between atoms: N_586  and  CA_587
REMARK  340  A    between atoms: CA_587  and  C_588
REMARK  341  A    between atoms: N_590  and  CA_591
REMARK  342  A    between atoms: CA_591  and  C_592
REMARK  343  A    between atoms: CA_591  and  CB_594
REMARK  344  A    between atoms: CB_594  and  CG_595
REMARK  345  A    between atoms: CZ_600  and  OH_601
REMARK  346  A    between atoms: N_602  and  CA_603
REMARK  347  A    between atoms: CA_603  and  C_604
REMARK  348  A    between atoms: CA_603  and  CB_606
REMARK  349  A    between atoms: CB_606  and  CG_607
REMARK  350  A    between atoms: N_613  and  CA_614
REMARK  351  A    between atoms: CA_614  and  C_615
REMARK  352  A    between atoms: CA_614  and  CB_617
REMARK  353  A    between atoms: CB_617  and  CG_618
REMARK  354  A    between atoms: N_623  and  CA_624
REMARK  355  A    between atoms: CA_624  and  C_625
REMARK  356  A    between atoms: CA_624  and  CB_627
REMARK  357  A    between atoms: CB_627  and  CG_628
REMARK  358  A    between atoms: N_631  and  CA_632
REMARK  359  A    between atoms: CA_632  and  C_633
REMARK  360  A    between atoms: CA_632  and  CB_635
REMARK  361  A    between atoms: N_636  and  CA_637
REMARK  362  A    between atoms: CA_637  and  C_638
REMARK  363  A    between atoms: CA_637  and  CB_640
REMARK  364  A    between atoms: CB_640  and  OG1_641
REMARK  365  A    between atoms: CB_640  and  CG2_642
REMARK  366  A    between atoms: N_643  and  CA_644
REMARK  367  A    between atoms: CA_644  and  C_645
REMARK  368  A    between atoms: CA_644  and  CB_647
REMARK  369  A    between atoms: CB_647  and  CG_648
REMARK  370  A    between atoms: CG_648  and  CD_649
REMARK  371  A    between atoms: CD_649  and  NE_650
REMARK  372  A    between atoms: N_654  and  CA_655
REMARK  373  A    between atoms: CA_655  and  C_656
REMARK  374  A    between atoms: CA_655  and  CB_658
REMARK  375  A    between atoms: CB_658  and  CG1_659
REMARK  376  A    between atoms: CB_658  and  CG2_660
REMARK  377  A    between atoms: N_661  and  CA_662
REMARK  378  A    between atoms: CA_662  and  C_663
REMARK  379  A    between atoms: CA_662  and  CB_665
REMARK  380  A    between atoms: CB_665  and  CG_666
REMARK  381  A    between atoms: CZ_671  and  OH_672
REMARK  382  A    between atoms: N_673  and  CA_674
REMARK  383  A    between atoms: CA_674  and  C_675
REMARK  384  A    between atoms: CA_674  and  CB_677
REMARK  385  A    between atoms: CB_677  and  CG_678
REMARK  386  A    between atoms: CG_678  and  CD2_679
REMARK  387  A    between atoms: CG_678  and  CD1_680
REMARK  388  A    between atoms: N_681  and  CA_682
REMARK  389  A    between atoms: CA_682  and  C_683
REMARK  390  A    between atoms: CA_682  and  CB_685
REMARK  391  A    between atoms: CB_685  and  CG1_686
REMARK  392  A    between atoms: CB_685  and  CG2_687
REMARK  393  A    between atoms: CG1_686  and  CD1_688
REMARK  394  A    between atoms: N_689  and  CA_690
REMARK  395  A    between atoms: CA_690  and  C_691
REMARK  396  A    between atoms: CA_690  and  CB_693
REMARK  397  A    between atoms: CB_693  and  CG_694
REMARK  398  A    between atoms: CG_694  and  CD2_695
REMARK  399  A    between atoms: CG_694  and  CD1_696
REMARK  400  A    between atoms: N_697  and  CA_698
REMARK  401  A    between atoms: CA_698  and  C_699
REMARK  402  A    between atoms: CA_698  and  CB_701
REMARK  403  A    between atoms: CB_701  and  CG_702
REMARK  404  A    between atoms: CG_702  and  CD_703
REMARK  405  A    between atoms: N_706  and  CA_707
REMARK  406  A    between atoms: CA_707  and  C_708
REMARK  407  A    between atoms: CA_707  and  CB_710
REMARK  408  A    between atoms: CB_710  and  CG_711
REMARK  409  A    between atoms: CZ_716  and  OH_717
REMARK  410  A    between atoms: N_718  and  CA_719
REMARK  411  A    between atoms: CA_719  and  C_720
REMARK  412  A    between atoms: CA_719  and  CB_722
REMARK  413  A    between atoms: CA_724  and  C_725
REMARK  414  A    between atoms: N_730  and  CA_731
REMARK  415  A    between atoms: CA_731  and  C_732
REMARK  416  A    between atoms: CA_731  and  CB_734
REMARK  417  A    between atoms: CB_734  and  CG_735
REMARK  418  A    between atoms: CG_735  and  CD1_736
REMARK  419  A    between atoms: CG_735  and  CD2_737
REMARK  420  A    between atoms: N_738  and  CA_739
REMARK  421  A    between atoms: CA_739  and  C_740
REMARK  422  A    between atoms: N_742  and  CA_743
REMARK  423  A    between atoms: CA_743  and  C_744
REMARK  424  A    between atoms: CA_743  and  CB_746
REMARK  425  A    between atoms: CB_746  and  OG1_747
REMARK  426  A    between atoms: CB_746  and  CG2_748
REMARK  427  A    between atoms: N_749  and  CA_750
REMARK  428  A    between atoms: CA_750  and  C_751
REMARK  429  A    between atoms: CA_750  and  CB_753
REMARK  430  A    between atoms: CB_753  and  CG2_754
REMARK  431  A    between atoms: CB_753  and  CG1_755
REMARK  432  A    between atoms: N_756  and  CA_757
REMARK  433  A    between atoms: CA_757  and  C_758
REMARK  434  A    between atoms: CA_757  and  CB_760
REMARK  435  A    between atoms: CB_760  and  CG_761
REMARK  436  A    between atoms: CZ_766  and  OH_767
REMARK  437  A    between atoms: N_768  and  C_769
REMARK  438  A    between atoms: C_769  and  C_770
REMARK  439  A    between atoms: C_769  and  C_772
REMARK  440  A    between atoms: C_772  and  C_773
REMARK  441  A    between atoms: N_774  and  CA_775
REMARK  442  A    between atoms: CA_775  and  C_776
REMARK  443  A    between atoms: CA_775  and  CB_778
REMARK  444  A    between atoms: CB_778  and  CG_779
REMARK  445  A    between atoms: CG_779  and  CD_780
REMARK  446  A    between atoms: N_783  and  CA_784
REMARK  447  A    between atoms: CA_784  and  C_785
REMARK  448  A    between atoms: CA_784  and  CB_787
REMARK  449  A    between atoms: CB_787  and  CG_788
REMARK  450  A    between atoms: CG_788  and  CD2_789
REMARK  451  A    between atoms: CG_788  and  CD1_790
REMARK  452  A    between atoms: N_791  and  CA_792
REMARK  453  A    between atoms: CA_792  and  C_793
REMARK  454  A    between atoms: CA_792  and  CB_795
REMARK  455  A    between atoms: CB_795  and  CG_796
REMARK  456  A    between atoms: CG_796  and  CD_797
REMARK  457  A    between atoms: N_800  and  CA_801
REMARK  458  A    between atoms: CA_801  and  C_802
REMARK  459  A    between atoms: CA_801  and  CB_804
REMARK  460  A    between atoms: CB_804  and  CG_805
REMARK  461  A    between atoms: CG_805  and  CD_806
REMARK  462  A    between atoms: CD_806  and  CE_807
REMARK  463  A    between atoms: CE_807  and  NZ_808
REMARK  464  A    between atoms: N_809  and  CA_810
REMARK  465  A    between atoms: CA_810  and  C_811
REMARK  466  A    between atoms: CA_810  and  CB_813
REMARK  467  A    between atoms: CB_813  and  CG_814
REMARK  468  A    between atoms: CG_814  and  CD1_815
REMARK  469  A    between atoms: CG_814  and  CD2_816
REMARK  470  A    between atoms: N_817  and  CA_818
REMARK  471  A    between atoms: CA_818  and  C_819
REMARK  472  A    between atoms: CA_818  and  CB_821
REMARK  473  A    between atoms: CB_821  and  OG_822
REMARK  474  A    between atoms: N_823  and  CA_824
REMARK  475  A    between atoms: CA_824  and  C_825
REMARK  476  A    between atoms: CA_824  and  CB_827
REMARK  477  A    between atoms: CB_827  and  CG_828
REMARK  478  A    between atoms: CG_828  and  CD_829
REMARK  479  A    between atoms: CD_829  and  CE_830
REMARK  480  A    between atoms: CE_830  and  NZ_831
REMARK  481  A    between atoms: N_832  and  CA_833
REMARK  482  A    between atoms: CA_833  and  C_834
REMARK  483  A    between atoms: CA_833  and  CB_836
REMARK  484  A    between atoms: CB_836  and  CG_837
REMARK  485  A    between atoms: N_843  and  CA_844
REMARK  486  A    between atoms: CA_844  and  C_845
REMARK  487  A    between atoms: CA_844  and  CB_847
REMARK  488  A    between atoms: CB_847  and  CG_848
REMARK  489  A    between atoms: N_851  and  CA_852
REMARK  490  A    between atoms: CA_852  and  C_853
REMARK  491  A    between atoms: CA_852  and  CB_855
REMARK  492  A    between atoms: CB_855  and  CG_856
REMARK  493  A    between atoms: CG_856  and  CD_857
REMARK  494  A    between atoms: N_860  and  CA_861
REMARK  495  A    between atoms: CA_861  and  C_862
REMARK  496  A    between atoms: CA_861  and  CB_864
REMARK  497  A    between atoms: CB_864  and  CG_865
REMARK  498  A    between atoms: CG_865  and  CD_866
REMARK  499  A    between atoms: N_869  and  CA_870
REMARK  500  A    between atoms: CA_870  and  C_871
REMARK  501  A    between atoms: CA_870  and  CB_873
REMARK  502  A    between atoms: CB_873  and  CG_874
REMARK  503  A    between atoms: CG_874  and  CD_875
REMARK  504  A    between atoms: CD_875  and  NE_876
REMARK  505  A    between atoms: N_880  and  CA_881
REMARK  506  A    between atoms: CA_881  and  C_882
REMARK  507  A    between atoms: CA_881  and  CB_884
REMARK  508  A    between atoms: CB_884  and  OG1_885
REMARK  509  A    between atoms: CB_884  and  CG2_886
REMARK  510  A    between atoms: N_887  and  CA_888
REMARK  511  A    between atoms: CA_888  and  C_889
REMARK  512  A    between atoms: CA_888  and  CB_891
REMARK  513  A    between atoms: N_892  and  CA_893
REMARK  514  A    between atoms: CA_893  and  C_894
REMARK  515  A    between atoms: CA_893  and  CB_896
REMARK  516  A    between atoms: CB_896  and  OG1_897
REMARK  517  A    between atoms: CB_896  and  CG2_898
REMARK  518  A    between atoms: N_899  and  CA_900
REMARK  519  A    between atoms: CA_900  and  C_901
REMARK  520  A    between atoms: CA_900  and  CB_903
REMARK  521  A    between atoms: CB_903  and  CG_904
REMARK  522  A    between atoms: CZ_909  and  OH_910
REMARK  523  A    between atoms: N_911  and  CA_912
REMARK  524  A    between atoms: CA_912  and  C_913
REMARK  525  A    between atoms: CA_912  and  CB_915
REMARK  526  A    between atoms: CB_915  and  CG1_916
REMARK  527  A    between atoms: CB_915  and  CG2_917
REMARK  528  A    between atoms: CG1_916  and  CD1_918
REMARK  529  A    between atoms: N_919  and  CA_920
REMARK  530  A    between atoms: CA_920  and  C_921
REMARK  531  A    between atoms: CA_920  and  CB_923
REMARK  532  A    between atoms: CB_923  and  OG1_924
REMARK  533  A    between atoms: CB_923  and  CG2_925
REMARK  534  A    between atoms: N_926  and  CA_927
REMARK  535  A    between atoms: CA_927  and  C_928
REMARK  536  A    between atoms: CA_927  and  CB_930
REMARK  537  A    between atoms: CB_930  and  CG_931
REMARK  538  A    between atoms: CG_931  and  CD_932
REMARK  539  A    between atoms: N_935  and  CA_936
REMARK  540  A    between atoms: CA_936  and  C_937
REMARK  541  A    between atoms: CA_936  and  CB_939
REMARK  542  A    between atoms: CB_939  and  CG_940
REMARK  543  A    between atoms: CG_940  and  CD2_941
REMARK  544  A    between atoms: CG_940  and  CD1_942
REMARK  545  A    between atoms: N_943  and  CA_944
REMARK  546  A    between atoms: CA_944  and  C_945
REMARK  547  A    between atoms: CA_944  and  CB_947
REMARK  548  A    between atoms: N_948  and  CA_949
REMARK  549  A    between atoms: CA_949  and  C_950
REMARK  550  A    between atoms: CA_949  and  CB_952
REMARK  551  A    between atoms: CB_952  and  CG_953
REMARK  552  A    between atoms: N_956  and  CA_957
REMARK  553  A    between atoms: CA_957  and  C_958
REMARK  554  A    between atoms: CA_957  and  CB_960
REMARK  555  A    between atoms: N_961  and  CA_962
REMARK  556  A    between atoms: CA_962  and  C_963
REMARK  557  A    between atoms: CA_962  and  CB_965
REMARK  558  A    between atoms: CB_965  and  CG_966
REMARK  559  A    between atoms: CG_966  and  CD2_967
REMARK  560  A    between atoms: CG_966  and  CD1_968
REMARK  561  A    between atoms: N_969  and  CA_970
REMARK  562  A    between atoms: CA_970  and  C_971
REMARK  563  A    between atoms: CA_970  and  CB_973
REMARK  564  A    between atoms: CB_973  and  OG_974
REMARK  565  A    between atoms: N_975  and  CA_976
REMARK  566  A    between atoms: CA_976  and  C_977
REMARK  567  A    between atoms: CA_976  and  CB_979
REMARK  568  A    between atoms: CB_979  and  CG_980
REMARK  569  A    between atoms: CZ_985  and  OH_986
REMARK  570  A    between atoms: N_987  and  CA_988
REMARK  571  A    between atoms: CA_988  and  C_989
REMARK  572  A    between atoms: CA_988  and  CB_991
REMARK  573  A    between atoms: CB_991  and  SG_992
REMARK  574  A    between atoms: N_993  and  CA_994
REMARK  575  A    between atoms: CA_994  and  C_995
REMARK  576  A    between atoms: CA_994  and  CB_997
REMARK  577  A    between atoms: CB_997  and  CG_998
REMARK  578  A    between atoms: N_1003  and  C_1004
REMARK  579  A    between atoms: C_1004  and  C_1005
REMARK  580  A    between atoms: C_1004  and  C_1007
REMARK  581  A    between atoms: C_1007  and  O_1008
REMARK  582  A    between atoms: N_1009  and  C_1010
REMARK  583  A    between atoms: C_1010  and  C_1011
REMARK  584  A    between atoms: C_1010  and  C_1013
REMARK  585  A    between atoms: C_1013  and  C_1014
REMARK  586  A    between atoms: C_1014  and  C_1015
REMARK  587  A    between atoms: C_1015  and  C_1016
REMARK  588  A    between atoms: C_1016  and  N_1017
REMARK  589  A    between atoms: N_1018  and  C_1019
REMARK  590  A    between atoms: C_1020  and  C_1021
REMARK  591  A    between atoms: C_1020  and  C_1024
REMARK  592  A    between atoms: C_1023  and  C_1026
REMARK  593  A    between atoms: C_1025  and  C_1026
REMARK  594  A    between atoms: C_1027  and  N_1029
REMARK  595  A    between atoms: C_1028  and  N_1030
REMARK  596  A    between atoms: N_1037  and  C_1038
REMARK  597  A    between atoms: C_1038  and  C_1039
REMARK  598  A    between atoms: C_1038  and  C_1041
REMARK  599  A    between atoms: C_1041  and  C_1042
REMARK  600  A    between atoms: C_1041  and  C_1043
REMARK  601  A    between atoms: N_1044  and  C_1045
REMARK  602  A    between atoms: C_1045  and  C_1046
REMARK  603  A    between atoms: C_1045  and  C_1048
REMARK  604  A    between atoms: C_1048  and  C_1049
REMARK  605  A    between atoms: C_1048  and  C_1050
REMARK  606  A    between atoms: C_1049  and  C_1051
REMARK  607  A    between atoms: N_1052  and  C_1053
REMARK  608  A    between atoms: C_1053  and  C_1054
REMARK  609  A    between atoms: C_1053  and  C_1056
REMARK  610  A    between atoms: C_1056  and  C_1057
REMARK  611  A    between atoms: N_1062  and  C_1063
REMARK  612  A    between atoms: C_1063  and  C_1064
REMARK  613  A    between atoms: C_1063  and  C_1066
REMARK  614  A    between atoms: C_1066  and  C_1067
REMARK  615  A    between atoms: C_1067  and  C_1068
REMARK  616  A    between atoms: C_1068  and  N_1069
REMARK  617  A    between atoms: N_1073  and  C_1074
REMARK  618  A    between atoms: C_1074  and  C_1077
REMARK  619  A    between atoms: C_1077  and  C_1078
REMARK  620  A    between atoms: N_1081  and  C_1084
REMARK  621  A    between atoms: C_1083  and  C_1085
REMARK  622  A    between atoms: C_1085  and  C_1086
REMARK  623  A    between atoms: C_1085  and  O_1087
REMARK  624  A    between atoms: C_1085  and  N_1097
REMARK  625  A    between atoms: C_1089  and  C_1094
REMARK  626  A    between atoms: C_1090  and  C_1091
REMARK  627  A    between atoms: C_1093  and  C_1094
REMARK  628  A    between atoms: C_1098  and  C_1099
REMARK  629  A    between atoms: C_1098  and  C_1101
REMARK  630  A    between atoms: C_1101  and  C_1102
REMARK  631  A    between atoms: C_1102  and  C_1103
REMARK  632  A    between atoms: C_1103  and  C_1104
REMARK  633  A    between atoms: C_1104  and  N_1105
REMARK  634  A    between atoms: C_1107  and  C_1108
REMARK  635  A    between atoms: N_1113  and  CA_1114
REMARK  636  A    between atoms: CA_1114  and  C_1115
REMARK  637  A    between atoms: CA_1114  and  CB_1117
REMARK  638  A    between atoms: CB_1117  and  CG_1118
REMARK  639  A    between atoms: CG_1118  and  CD_1119
REMARK  640  A    between atoms: N_1122  and  CA_1123
REMARK  641  A    between atoms: CA_1123  and  C_1124
REMARK  642  A    between atoms: CA_1123  and  CB_1126
REMARK  643  A    between atoms: CB_1126  and  CG_1127
REMARK  644  A    between atoms: N_1130  and  CA_1131
REMARK  645  A    between atoms: CA_1131  and  C_1132
REMARK  646  A    between atoms: CA_1131  and  CB_1134
REMARK  647  A    between atoms: CB_1134  and  CG_1135
REMARK  648  A    between atoms: CG_1135  and  CD2_1136
REMARK  649  A    between atoms: CG_1135  and  CD1_1137
REMARK  650  A    between atoms: N_1138  and  CA_1139
REMARK  651  A    between atoms: CA_1139  and  C_1140
REMARK  652  A    between atoms: CA_1139  and  CB_1142
REMARK  653  A    between atoms: CB_1142  and  CG_1143
REMARK  654  A    between atoms: CG_1143  and  CD1_1144
REMARK  655  A    between atoms: CG_1143  and  CD2_1145
REMARK  656  A    between atoms: N_1146  and  CA_1147
REMARK  657  A    between atoms: CA_1147  and  C_1148
REMARK  658  A    between atoms: CA_1147  and  CB_1150
REMARK  659  A    between atoms: CB_1150  and  CG_1151
REMARK  660  A    between atoms: CG_1151  and  CD2_1152
REMARK  661  A    between atoms: CG_1151  and  CD1_1153
REMARK  662  A    between atoms: N_1154  and  CA_1155
REMARK  663  A    between atoms: CA_1155  and  C_1156
REMARK  664  A    between atoms: N_1158  and  CA_1159
REMARK  665  A    between atoms: CA_1159  and  C_1160
REMARK  666  A    between atoms: CA_1159  and  CB_1162
REMARK  667  A    between atoms: CB_1162  and  OG_1163
REMARK  668  A    between atoms: N_1164  and  CA_1165
REMARK  669  A    between atoms: CA_1165  and  C_1166
REMARK  670  A    between atoms: CA_1165  and  CB_1168
REMARK  671  A    between atoms: N_1169  and  CA_1170
REMARK  672  A    between atoms: CA_1170  and  C_1171
REMARK  673  A    between atoms: N_1173  and  CA_1174
REMARK  674  A    between atoms: CA_1174  and  C_1175
REMARK  675  A    between atoms: CA_1174  and  CB_1177
REMARK  676  A    between atoms: CB_1177  and  CG_1178
REMARK  677  A    between atoms: CG_1178  and  CD_1179
REMARK  678  A    between atoms: N_1182  and  CA_1183
REMARK  679  A    between atoms: CA_1183  and  C_1184
REMARK  680  A    between atoms: CA_1183  and  CB_1186
REMARK  681  A    between atoms: CB_1186  and  CG_1187
REMARK  682  A    between atoms: CG_1187  and  CD2_1188
REMARK  683  A    between atoms: CG_1187  and  CD1_1189
REMARK  684  A    between atoms: N_1190  and  CA_1191
REMARK  685  A    between atoms: CA_1191  and  C_1192
REMARK  686  A    between atoms: CA_1191  and  CB_1194
REMARK  687  A    between atoms: CB_1194  and  CG_1195
REMARK  688  A    between atoms: CG_1195  and  CD_1196
REMARK  689  A    between atoms: CD_1196  and  CE_1197
REMARK  690  A    between atoms: CE_1197  and  NZ_1198
REMARK  691  A    between atoms: N_1199  and  CA_1200
REMARK  692  A    between atoms: CA_1200  and  C_1201
REMARK  693  A    between atoms: CA_1200  and  CB_1203
REMARK  694  A    between atoms: CB_1203  and  CG1_1204
REMARK  695  A    between atoms: CB_1203  and  CG2_1205
REMARK  696  A    between atoms: CG1_1204  and  CD1_1206
REMARK  697  A    between atoms: N_1207  and  CA_1208
REMARK  698  A    between atoms: CA_1208  and  C_1209
REMARK  699  A    between atoms: CA_1208  and  CB_1211
REMARK  700  A    between atoms: N_1212  and  CA_1213
REMARK  701  A    between atoms: CA_1213  and  C_1214
REMARK  702  A    between atoms: CA_1213  and  CB_1216
REMARK  703  A    between atoms: CB_1216  and  CG_1217
REMARK  704  A    between atoms: N_1220  and  CA_1221
REMARK  705  A    between atoms: CA_1221  and  C_1222
REMARK  706  A    between atoms: CA_1221  and  CB_1224
REMARK  707  A    between atoms: CB_1224  and  CG_1225
REMARK  708  A    between atoms: N_1231  and  CA_1232
REMARK  709  A    between atoms: CA_1232  and  C_1233
REMARK  710  A    between atoms: N_1235  and  CA_1236
REMARK  711  A    between atoms: CA_1236  and  C_1237
REMARK  712  A    between atoms: CA_1236  and  CB_1239
REMARK  713  A    between atoms: CB_1239  and  CG_1240
REMARK  714  A    between atoms: N_1249  and  CA_1250
REMARK  715  A    between atoms: CA_1250  and  C_1251
REMARK  716  A    between atoms: CA_1250  and  CB_1253
REMARK  717  A    between atoms: CB_1253  and  OG_1254
REMARK  718  A    between atoms: N_1255  and  CA_1256
REMARK  719  A    between atoms: CA_1256  and  C_1257
REMARK  720  A    between atoms: CA_1256  and  CB_1259
REMARK  721  A    between atoms: CB_1259  and  CG2_1260
REMARK  722  A    between atoms: CB_1259  and  CG1_1261
REMARK  723  A    between atoms: N_1262  and  CA_1263
REMARK  724  A    between atoms: CA_1263  and  C_1264
REMARK  725  A    between atoms: CA_1263  and  CB_1266
REMARK  726  A    between atoms: CB_1266  and  CG_1267
REMARK  727  A    between atoms: N_1272  and  CA_1273
REMARK  728  A    between atoms: CA_1273  and  C_1274
REMARK  729  A    between atoms: CA_1273  and  CB_1276
REMARK  730  A    between atoms: CA_1278  and  C_1279
REMARK  731  A    between atoms: N_1284  and  CA_1285
REMARK  732  A    between atoms: CA_1285  and  C_1286
REMARK  733  A    between atoms: CA_1285  and  CB_1288
REMARK  734  A    between atoms: CB_1288  and  OG_1289
REMARK  735  A    between atoms: N_1290  and  CA_1291
REMARK  736  A    between atoms: CA_1291  and  C_1292
REMARK  737  A    between atoms: CA_1291  and  CB_1294
REMARK  738  A    between atoms: CB_1294  and  OG_1295
REMARK  739  A    between atoms: N_1296  and  C_1297
REMARK  740  A    between atoms: C_1297  and  C_1298
REMARK  741  A    between atoms: C_1297  and  C_1300
REMARK  742  A    between atoms: C_1300  and  C_1301
REMARK  743  A    between atoms: C_1301  and  C_1302
REMARK  744  A    between atoms: N_1303  and  CA_1304
REMARK  745  A    between atoms: CA_1304  and  C_1305
REMARK  746  A    between atoms: CA_1304  and  CB_1307
REMARK  747  A    between atoms: CB_1307  and  CG_1308
REMARK  748  A    between atoms: CG_1308  and  CD_1309
REMARK  749  A    between atoms: CD_1309  and  NE_1310
REMARK  750  A    between atoms: N_1314  and  CA_1315
REMARK  751  A    between atoms: CA_1315  and  C_1316
REMARK  752  A    between atoms: CA_1315  and  CB_1318
REMARK  753  A    between atoms: CB_1318  and  OG1_1319
REMARK  754  A    between atoms: CB_1318  and  CG2_1320
REMARK  755  A    between atoms: N_1321  and  C_1322
REMARK  756  A    between atoms: C_1322  and  C_1323
REMARK  757  A    between atoms: C_1322  and  C_1325
REMARK  758  A    between atoms: C_1325  and  C_1326
REMARK  759  A    between atoms: C_1326  and  C_1327
REMARK  760  A    between atoms: C_1326  and  C_1328
REMARK  761  A    between atoms: N_1329  and  C_1330
REMARK  762  A    between atoms: C_1330  and  C_1331
REMARK  763  A    between atoms: C_1330  and  C_1333
REMARK  764  A    between atoms: N_1334  and  C_1335
REMARK  765  A    between atoms: C_1335  and  C_1336
REMARK  766  A    between atoms: N_1338  and  C_1339
REMARK  767  A    between atoms: C_1339  and  C_1340
REMARK  768  A    between atoms: C_1339  and  C_1342
REMARK  769  A    between atoms: C_1342  and  O_1343
REMARK  770  A    between atoms: C_1342  and  C_1344
REMARK  771  A    between atoms: N_1345  and  C_1346
REMARK  772  A    between atoms: C_1346  and  C_1347
REMARK  773  A    between atoms: C_1346  and  C_1349
REMARK  774  A    between atoms: C_1349  and  C_1350
REMARK  775  A    between atoms: C_1350  and  C_1351
REMARK  776  A    between atoms: C_1350  and  C_1352
REMARK  777  A    between atoms: N_1353  and  C_1354
REMARK  778  A    between atoms: C_1354  and  C_1355
REMARK  779  A    between atoms: C_1354  and  C_1357
REMARK  780  A    between atoms: C_1357  and  C_1358
REMARK  781  A    between atoms: N_1361  and  C_1362
REMARK  782  A    between atoms: C_1362  and  C_1363
REMARK  783  A    between atoms: C_1362  and  C_1365
REMARK  784  A    between atoms: C_1365  and  C_1366
REMARK  785  A    between atoms: C_1371  and  O_1372
REMARK  786  A    between atoms: N_1373  and  C_1374
REMARK  787  A    between atoms: C_1374  and  C_1375
REMARK  788  A    between atoms: C_1374  and  C_1377
REMARK  789  A    between atoms: C_1377  and  C_1378
REMARK  790  A    between atoms: C_1378  and  C_1379
REMARK  791  A    between atoms: C_1378  and  C_1380
REMARK  792  A    between atoms: C_1382  and  C_1383
REMARK  793  A    between atoms: C_1389  and  C_1390
REMARK  794  A    between atoms: N_1395  and  C_1396
REMARK  795  A    between atoms: C_1396  and  C_1399
REMARK  796  A    between atoms: C_1399  and  C_1400
REMARK  797  A    between atoms: C_1400  and  C_1401
REMARK  798  A    between atoms: N_1405  and  C_1406
REMARK  799  A    between atoms: C_1407  and  C_1412
REMARK  800  A    between atoms: C_1408  and  O_1410
REMARK  801  A    between atoms: C_1409  and  O_1411
REMARK  802  A    between atoms: O_1410  and  O_1411
REMARK  803  A    between atoms: C_1412  and  C_1414
REMARK  804  A    between atoms: C_1413  and  C_1415
REMARK  805  A    between atoms: S_1416  and  C_1418
REMARK  806  A    between atoms: S_1417  and  C_1419
REMARK  807  A    between atoms: C_1418  and  C_1419
REMARK  808  A    between atoms: N_1420  and  CA_1421
REMARK  809  A    between atoms: CA_1421  and  C_1422
REMARK  810  A    between atoms: CA_1421  and  CB_1424
REMARK  811  A    between atoms: CB_1424  and  CG1_1425
REMARK  812  A    between atoms: CB_1424  and  CG2_1426
REMARK  813  A    between atoms: CG1_1425  and  CD1_1427
REMARK  814  A    between atoms: N_1428  and  CA_1429
REMARK  815  A    between atoms: CA_1429  and  C_1430
REMARK  816  A    between atoms: CA_1429  and  CB_1432
REMARK  817  A    between atoms: CB_1432  and  CG_1433
REMARK  818  A    between atoms: CG_1433  and  CD_1434
REMARK  819  A    between atoms: N_1437  and  CA_1438
REMARK  820  A    between atoms: CA_1438  and  C_1439
REMARK  821  A    between atoms: N_1441  and  CA_1442
REMARK  822  A    between atoms: CA_1442  and  C_1443
REMARK  823  A    between atoms: CA_1442  and  CB_1445
REMARK  824  A    between atoms: CB_1445  and  CG_1446
REMARK  825  A    between atoms: CG_1446  and  CD_1447
REMARK  826  A    between atoms: CD_1447  and  NE_1448
REMARK  827  A    between atoms: N_1452  and  C_1453
REMARK  828  A    between atoms: C_1453  and  C_1454
REMARK  829  A    between atoms: C_1453  and  C_1456
REMARK  830  A    between atoms: C_1456  and  C_1457
REMARK  831  A    between atoms: C_1457  and  S_1458
REMARK  832  A    between atoms: N_1459  and  CA_1460
REMARK  833  A    between atoms: CA_1460  and  C_1461
REMARK  834  A    between atoms: CA_1460  and  CB_1463
REMARK  835  A    between atoms: CB_1463  and  CG_1464
REMARK  836  A    between atoms: N_1469  and  CA_1470
REMARK  837  A    between atoms: CA_1470  and  C_1471
REMARK  838  A    between atoms: CA_1470  and  CB_1473
REMARK  839  A    between atoms: CB_1473  and  CG_1474
REMARK  840  A    between atoms: N_1477  and  CA_1478
REMARK  841  A    between atoms: CA_1478  and  C_1479
REMARK  842  A    between atoms: CA_1478  and  CB_1481
REMARK  843  A    between atoms: CB_1481  and  CG_1482
REMARK  844  A    between atoms: CG_1482  and  CD_1483
REMARK  845  A    between atoms: N_1486  and  CA_1487
REMARK  846  A    between atoms: CA_1487  and  C_1488
REMARK  847  A    between atoms: CA_1487  and  CB_1490
REMARK  848  A    between atoms: CB_1490  and  CG_1491
REMARK  849  A    between atoms: CG_1491  and  CD_1492
REMARK  850  A    between atoms: CD_1492  and  CE_1493
REMARK  851  A    between atoms: CE_1493  and  NZ_1494
REMARK  852  A    between atoms: N_1495  and  CA_1496
REMARK  853  A    between atoms: CA_1496  and  C_1497
REMARK  854  A    between atoms: CA_1496  and  CB_1499
REMARK  855  A    between atoms: CB_1499  and  CG2_1500
REMARK  856  A    between atoms: CB_1499  and  CG1_1501
REMARK  857  A    between atoms: N_1502  and  CA_1503
REMARK  858  A    between atoms: CA_1503  and  C_1504
REMARK  859  A    between atoms: CA_1503  and  CB_1506
REMARK  860  A    between atoms: CB_1506  and  CG_1507
REMARK  861  A    between atoms: N_1510  and  CA_1511
REMARK  862  A    between atoms: CA_1511  and  C_1512
REMARK  863  A    between atoms: CA_1511  and  CB_1514
REMARK  864  A    between atoms: CB_1514  and  CG_1515
REMARK  865  A    between atoms: CG_1515  and  CD2_1516
REMARK  866  A    between atoms: CG_1515  and  CD1_1517
REMARK  867  A    between atoms: N_1518  and  CA_1519
REMARK  868  A    between atoms: CA_1519  and  C_1520
REMARK  869  A    between atoms: CA_1519  and  CB_1522
REMARK  870  A    between atoms: CB_1522  and  CG_1523
REMARK  871  A    between atoms: N_1532  and  CA_1533
REMARK  872  A    between atoms: CA_1533  and  C_1534
REMARK  873  A    between atoms: CA_1533  and  CB_1536
REMARK  874  A    between atoms: CB_1536  and  OG_1537
REMARK  875  A    between atoms: N_1538  and  CA_1539
REMARK  876  A    between atoms: CA_1539  and  C_1540
REMARK  877  A    between atoms: CA_1539  and  CB_1542
REMARK  878  A    between atoms: CB_1542  and  CG_1543
REMARK  879  A    between atoms: CG_1543  and  CD2_1544
REMARK  880  A    between atoms: CG_1543  and  CD1_1545
REMARK  881  A    between atoms: N_1546  and  CA_1547
REMARK  882  A    between atoms: CA_1547  and  C_1548
REMARK  883  A    between atoms: N_1550  and  CA_1551
REMARK  884  A    between atoms: CA_1551  and  C_1552
REMARK  885  A    between atoms: CA_1551  and  CB_1554
REMARK  886  A    between atoms: CB_1554  and  CG2_1555
REMARK  887  A    between atoms: CB_1554  and  CG1_1556
REMARK  888  A    between atoms: N_1557  and  CA_1558
REMARK  889  A    between atoms: CA_1558  and  C_1559
REMARK  890  A    between atoms: CA_1558  and  CB_1561
REMARK  891  A    between atoms: CB_1561  and  CG_1562
REMARK  892  A    between atoms: CG_1562  and  CD1_1563
REMARK  893  A    between atoms: CG_1562  and  CD2_1564
REMARK  894  A    between atoms: N_1565  and  CA_1566
REMARK  895  A    between atoms: CA_1566  and  C_1567
REMARK  896  A    between atoms: CA_1566  and  CB_1569
REMARK  897  A    between atoms: CB_1569  and  SG_1570
REMARK  898  A    between atoms: N_1571  and  CA_1572
REMARK  899  A    between atoms: CA_1572  and  C_1573
REMARK  900  A    between atoms: CA_1572  and  CB_1575
REMARK  901  A    between atoms: CB_1575  and  CG_1576
REMARK  902  A    between atoms: CZ_1581  and  OH_1582
REMARK  903  A    between atoms: N_1583  and  CA_1584
REMARK  904  A    between atoms: CA_1584  and  C_1585
REMARK  905  A    between atoms: CA_1584  and  CB_1587
REMARK  906  A    between atoms: CB_1587  and  CG_1588
REMARK  907  A    between atoms: CG_1588  and  CD_1589
REMARK  908  A    between atoms: N_1592  and  CA_1593
REMARK  909  A    between atoms: CA_1593  and  C_1594
REMARK  910  A    between atoms: CA_1593  and  CB_1596
REMARK  911  A    between atoms: CB_1596  and  CG_1597
REMARK  912  A    between atoms: N_1603  and  CA_1604
REMARK  913  A    between atoms: CA_1604  and  C_1605
REMARK  914  A    between atoms: CA_1604  and  CB_1607
REMARK  915  A    between atoms: CB_1607  and  CG_1608
REMARK  916  A    between atoms: CG_1608  and  CD1_1609
REMARK  917  A    between atoms: CG_1608  and  CD2_1610
REMARK  918  A    between atoms: N_1611  and  CA_1612
REMARK  919  A    between atoms: CA_1612  and  C_1613
REMARK  920  A    between atoms: CA_1612  and  CB_1615
REMARK  921  A    between atoms: CB_1615  and  CG2_1616
REMARK  922  A    between atoms: CB_1615  and  CG1_1617
REMARK  923  A    between atoms: N_1618  and  CA_1619
REMARK  924  A    between atoms: CA_1619  and  C_1620
REMARK  925  A    between atoms: N_1622  and  C_1623
REMARK  926  A    between atoms: C_1623  and  C_1624
REMARK  927  A    between atoms: C_1623  and  C_1626
REMARK  928  A    between atoms: C_1626  and  C_1627
REMARK  929  A    between atoms: C_1627  and  C_1628
REMARK  930  A    between atoms: CA_1630  and  C_1631
REMARK  931  A    between atoms: CA_1637  and  C_1638
REMARK  932  A    between atoms: N_1643  and  CA_1644
REMARK  933  A    between atoms: CA_1644  and  C_1645
REMARK  934  A    between atoms: CA_1644  and  CB_1647
REMARK  935  A    between atoms: CB_1647  and  CG_1648
REMARK  936  A    between atoms: N_1654  and  CA_1655
REMARK  937  A    between atoms: CA_1655  and  C_1656
REMARK  938  A    between atoms: CA_1655  and  CB_1658
REMARK  939  A    between atoms: CB_1658  and  CG_1659
REMARK  940  A    between atoms: CG_1659  and  CD_1660
REMARK  941  A    between atoms: N_1663  and  CA_1664
REMARK  942  A    between atoms: CA_1664  and  C_1665
REMARK  943  A    between atoms: CA_1664  and  CB_1667
REMARK  944  A    between atoms: N_1668  and  CA_1669
REMARK  945  A    between atoms: CA_1669  and  C_1670
REMARK  946  A    between atoms: CA_1669  and  CB_1672
REMARK  947  A    between atoms: CB_1672  and  CG_1673
REMARK  948  A    between atoms: N_1676  and  CA_1677
REMARK  949  A    between atoms: CA_1677  and  C_1678
REMARK  950  A    between atoms: CA_1677  and  CB_1680
REMARK  951  A    between atoms: CB_1680  and  OG1_1681
REMARK  952  A    between atoms: CB_1680  and  CG2_1682
REMARK  953  A    between atoms: N_1683  and  CA_1684
REMARK  954  A    between atoms: CA_1684  and  C_1685
REMARK  955  A    between atoms: CA_1684  and  CB_1687
REMARK  956  A    between atoms: CB_1687  and  CG_1688
REMARK  957  A    between atoms: CZ_1693  and  OH_1694
REMARK  958  A    between atoms: N_1695  and  CA_1696
REMARK  959  A    between atoms: CA_1696  and  C_1697
REMARK  960  A    between atoms: CA_1696  and  CB_1699
REMARK  961  A    between atoms: CB_1699  and  CG_1700
REMARK  962  A    between atoms: CG_1700  and  CD_1701
REMARK  963  A    between atoms: N_1704  and  CA_1705
REMARK  964  A    between atoms: CA_1705  and  C_1706
REMARK  965  A    between atoms: CA_1705  and  CB_1708
REMARK  966  A    between atoms: CB_1708  and  CG_1709
REMARK  967  A    between atoms: CG_1709  and  CD_1710
REMARK  968  A    between atoms: N_1713  and  CA_1714
REMARK  969  A    between atoms: CA_1714  and  C_1715
REMARK  970  A    between atoms: CA_1714  and  CB_1717
REMARK  971  A    between atoms: CB_1717  and  OG1_1718
REMARK  972  A    between atoms: CB_1717  and  CG2_1719
REMARK  973  A    between atoms: N_1720  and  CA_1721
REMARK  974  A    between atoms: CA_1721  and  C_1722
REMARK  975  A    between atoms: CA_1721  and  CB_1724
REMARK  976  A    between atoms: CB_1724  and  CG_1725
REMARK  977  A    between atoms: CZ_1730  and  OH_1731
REMARK  978  A    between atoms: N_1732  and  CA_1733
REMARK  979  A    between atoms: CA_1733  and  C_1734
REMARK  980  A    between atoms: CA_1733  and  CB_1736
REMARK  981  A    between atoms: CB_1736  and  SG_1737
REMARK  982  A    between atoms: N_1738  and  C_1739
REMARK  983  A    between atoms: C_1739  and  C_1740
REMARK  984  A    between atoms: C_1739  and  C_1742
REMARK  985  A    between atoms: C_1742  and  C_1743
REMARK  986  A    between atoms: C_1743  and  C_1744
REMARK  987  A    between atoms: C_1744  and  N_1745
REMARK  988  A    between atoms: N_1746  and  CA_1747
REMARK  989  A    between atoms: CA_1747  and  C_1748
REMARK  990  A    between atoms: CA_1747  and  CB_1750
REMARK  991  A    between atoms: CB_1750  and  CG1_1751
REMARK  992  A    between atoms: CB_1750  and  CG2_1752
REMARK  993  A    between atoms: CG1_1751  and  CD1_1753
REMARK  994  A    between atoms: N_1754  and  C_1755
REMARK  995  A    between atoms: C_1755  and  C_1756
REMARK  996  A    between atoms: C_1755  and  C_1758
REMARK  997  A    between atoms: C_1758  and  O_1759
REMARK  998  A    between atoms: N_1760  and  C_1761
REMARK  999  A    between atoms: C_1761  and  C_1762
REMARK  1000  A    between atoms: C_1761  and  C_1764
REMARK  1001  A    between atoms: C_1764  and  C_1765
REMARK  1002  A    between atoms: C_1765  and  C_1766
REMARK  1003  A    between atoms: C_1766  and  N_1767
REMARK  1004  A    between atoms: N_1771  and  C_1772
REMARK  1005  A    between atoms: C_1772  and  C_1773
REMARK  1006  A    between atoms: C_1772  and  C_1775
REMARK  1007  A    between atoms: C_1775  and  C_1776
REMARK  1008  A    between atoms: C_1775  and  C_1777
REMARK  1009  A    between atoms: N_1778  and  C_1779
REMARK  1010  A    between atoms: C_1779  and  C_1780
REMARK  1011  A    between atoms: C_1779  and  C_1782
REMARK  1012  A    between atoms: C_1782  and  C_1783
REMARK  1013  A    between atoms: C_1783  and  C_1784
REMARK  1014  A    between atoms: N_1787  and  C_1788
REMARK  1015  A    between atoms: C_1788  and  C_1789
REMARK  1016  A    between atoms: C_1788  and  C_1791
REMARK  1017  A    between atoms: C_1791  and  C_1792
REMARK  1018  A    between atoms: N_1798  and  C_1799
REMARK  1019  A    between atoms: C_1799  and  C_1800
REMARK  1020  A    between atoms: C_1799  and  C_1802
REMARK  1021  A    between atoms: C_1802  and  O_1803
REMARK  1022  A    between atoms: C_1802  and  C_1804
REMARK  1023  A    between atoms: N_1805  and  C_1806
REMARK  1024  A    between atoms: C_1806  and  C_1807
REMARK  1025  A    between atoms: C_1806  and  C_1809
REMARK  1026  A    between atoms: C_1809  and  C_1810
REMARK  1027  A    between atoms: C_1817  and  C_1818
REMARK  1028  A    between atoms: N_1823  and  C_1824
REMARK  1029  A    between atoms: C_1824  and  C_1825
REMARK  1030  A    between atoms: C_1824  and  C_1827
REMARK  1031  A    between atoms: C_1827  and  C_1828
REMARK  1032  A    between atoms: N_1831  and  C_1832
REMARK  1033  A    between atoms: C_1832  and  C_1833
REMARK  1034  A    between atoms: C_1832  and  C_1835
REMARK  1035  A    between atoms: C_1835  and  C_1836
REMARK  1036  A    between atoms: N_1842  and  C_1843
REMARK  1037  A    between atoms: C_1843  and  C_1844
REMARK  1038  A    between atoms: C_1843  and  C_1846
REMARK  1039  A    between atoms: C_1846  and  C_1847
REMARK  1040  A    between atoms: C_1846  and  C_1848
REMARK  1041  A    between atoms: N_1849  and  C_1850
REMARK  1042  A    between atoms: C_1850  and  C_1851
REMARK  1043  A    between atoms: C_1850  and  C_1853
REMARK  1044  A    between atoms: C_1853  and  O_1854
REMARK  1045  A    between atoms: C_1853  and  C_1855
REMARK  1046  A    between atoms: N_1856  and  C_1857
REMARK  1047  A    between atoms: C_1858  and  C_1859
REMARK  1048  A    between atoms: C_1858  and  C_1861
REMARK  1049  A    between atoms: C_1862  and  C_1863
REMARK  1050  A    between atoms: C_1862  and  C_1864
REMARK  1051  A    between atoms: C_1863  and  C_1865
REMARK  1052  A    between atoms: N_1871  and  C_1872
REMARK  1053  A    between atoms: C_1872  and  C_1873
REMARK  1054  A    between atoms: N_1875  and  CA_1876
REMARK  1055  A    between atoms: CA_1876  and  C_1877
REMARK  1056  A    between atoms: CA_1876  and  CB_1879
REMARK  1057  A    between atoms: N_1880  and  CA_1881
REMARK  1058  A    between atoms: CA_1881  and  C_1882
REMARK  1059  A    between atoms: CA_1881  and  CB_1884
REMARK  1060  A    between atoms: CB_1884  and  CG_1885
REMARK  1061  A    between atoms: CG_1885  and  CD_1886
REMARK  1062  A    between atoms: CD_1886  and  NE_1887
REMARK  1063  A    between atoms: N_1891  and  CA_1892
REMARK  1064  A    between atoms: CA_1892  and  C_1893
REMARK  1065  A    between atoms: CA_1892  and  CB_1895
REMARK  1066  A    between atoms: CB_1895  and  CG_1896
REMARK  1067  A    between atoms: N_1899  and  CA_1900
REMARK  1068  A    between atoms: CA_1900  and  C_1901
REMARK  1069  A    between atoms: CA_1900  and  CB_1903
REMARK  1070  A    between atoms: CB_1903  and  CG_1904
REMARK  1071  A    between atoms: CG_1904  and  CD1_1905
REMARK  1072  A    between atoms: CG_1904  and  CD2_1906
REMARK  1073  A    between atoms: N_1907  and  CA_1908
REMARK  1074  A    between atoms: CA_1908  and  C_1909
REMARK  1075  A    between atoms: CA_1908  and  CB_1911
REMARK  1076  A    between atoms: CB_1911  and  CG1_1912
REMARK  1077  A    between atoms: CB_1911  and  CG2_1913
REMARK  1078  A    between atoms: CG1_1912  and  CD1_1914
REMARK  1079  A    between atoms: N_1915  and  CA_1916
REMARK  1080  A    between atoms: CA_1916  and  C_1917
REMARK  1081  A    between atoms: CA_1916  and  CB_1919
REMARK  1082  A    between atoms: CB_1919  and  OG_1920
REMARK  1083  A    between atoms: N_1921  and  CA_1922
REMARK  1084  A    between atoms: CA_1922  and  C_1923
REMARK  1085  A    between atoms: CA_1922  and  CB_1925
REMARK  1086  A    between atoms: CB_1925  and  CG_1926
REMARK  1087  A    between atoms: CG_1926  and  CD_1927
REMARK  1088  A    between atoms: CD_1927  and  NE_1928
REMARK  1089  A    between atoms: N_1932  and  CA_1933
REMARK  1090  A    between atoms: CA_1933  and  C_1934
REMARK  1091  A    between atoms: CA_1933  and  CB_1936
REMARK  1092  A    between atoms: CB_1936  and  CG_1937
REMARK  1093  A    between atoms: CG_1937  and  CD2_1938
REMARK  1094  A    between atoms: CG_1937  and  CD1_1939
REMARK  1095  A    between atoms: N_1940  and  CA_1941
REMARK  1096  A    between atoms: CA_1941  and  C_1942
REMARK  1097  A    between atoms: CA_1941  and  CB_1944
REMARK  1098  A    between atoms: CB_1944  and  CG_1945
REMARK  1099  A    between atoms: CG_1945  and  CD2_1946
REMARK  1100  A    between atoms: CG_1945  and  CD1_1947
REMARK  1101  A    between atoms: N_1948  and  CA_1949
REMARK  1102  A    between atoms: CA_1949  and  C_1950
REMARK  1103  A    between atoms: CA_1949  and  CB_1952
REMARK  1104  A    between atoms: CB_1952  and  CG_1953
REMARK  1105  A    between atoms: CG_1953  and  CD_1954
REMARK  1106  A    between atoms: CD_1954  and  CE_1955
REMARK  1107  A    between atoms: CE_1955  and  NZ_1956
REMARK  1108  A    between atoms: N_1957  and  CA_1958
REMARK  1109  A    between atoms: CA_1958  and  C_1959
REMARK  1110  A    between atoms: CA_1958  and  CB_1961
REMARK  1111  A    between atoms: CB_1961  and  CG_1962
REMARK  1112  A    between atoms: N_1967  and  CA_1968
REMARK  1113  A    between atoms: CA_1968  and  C_1969
REMARK  1114  A    between atoms: CA_1968  and  CB_1971
REMARK  1115  A    between atoms: CB_1971  and  CG_1972
REMARK  1116  A    between atoms: CA_1976  and  C_1977
REMARK  1117  A    between atoms: N_1982  and  C_1983
REMARK  1118  A    between atoms: C_1983  and  C_1984
REMARK  1119  A    between atoms: C_1983  and  C_1986
REMARK  1120  A    between atoms: C_1986  and  O_1987
REMARK  1121  A    between atoms: N_1988  and  C_1989
REMARK  1122  A    between atoms: C_1989  and  C_1990
REMARK  1123  A    between atoms: C_1989  and  C_1992
REMARK  1124  A    between atoms: C_1992  and  C_1993
REMARK  1125  A    between atoms: C_1993  and  C_1994
REMARK  1126  A    between atoms: N_1997  and  C_1998
REMARK  1127  A    between atoms: C_1998  and  C_1999
REMARK  1128  A    between atoms: C_1998  and  C_2001
REMARK  1129  A    between atoms: C_2001  and  C_2002
REMARK  1130  A    between atoms: C_2002  and  C_2003
REMARK  1131  A    between atoms: C_2003  and  N_2004
REMARK  1132  A    between atoms: C_2009  and  C_2010
REMARK  1133  A    between atoms: N_2015  and  C_2017
REMARK  1134  A    between atoms: C_2016  and  C_2018
REMARK  1135  A    between atoms: C_2016  and  C_2021
REMARK  1136  A    between atoms: C_2021  and  C_2022
REMARK  1137  A    between atoms: C_2022  and  C_2023
REMARK  1138  A    between atoms: C_2023  and  S_2024
REMARK  1139  A    between atoms: C_2023  and  S_2025
REMARK  1140  A    between atoms: S_2024  and  C_2026
REMARK  1141  A    between atoms: S_2025  and  C_2027
REMARK  1142  A    between atoms: N_2028  and  CA_2029
REMARK  1143  A    between atoms: CA_2029  and  C_2030
REMARK  1144  A    between atoms: CA_2029  and  CB_2032
REMARK  1145  A    between atoms: CB_2032  and  CG_2033
REMARK  1146  A    between atoms: CG_2033  and  CD1_2034
REMARK  1147  A    between atoms: CG_2033  and  CD2_2035
REMARK  1148  A    between atoms: N_2036  and  CA_2037
REMARK  1149  A    between atoms: CA_2037  and  C_2038
REMARK  1150  A    between atoms: CA_2037  and  CB_2040
REMARK  1151  A    between atoms: N_2041  and  CA_2042
REMARK  1152  A    between atoms: CA_2042  and  C_2043
REMARK  1153  A    between atoms: CA_2042  and  CB_2045
REMARK  1154  A    between atoms: CB_2045  and  CG_2046
REMARK  1155  A    between atoms: CG_2046  and  CD_2047
REMARK  1156  A    between atoms: N_2050  and  CA_2051
REMARK  1157  A    between atoms: CA_2051  and  C_2052
REMARK  1158  A    between atoms: CA_2051  and  CB_2054
REMARK  1159  A    between atoms: CB_2054  and  CG2_2055
REMARK  1160  A    between atoms: CB_2054  and  CG1_2056
REMARK  1161  A    between atoms: N_2057  and  CA_2058
REMARK  1162  A    between atoms: CA_2058  and  C_2059
REMARK  1163  A    between atoms: CA_2058  and  CB_2061
REMARK  1164  A    between atoms: CB_2061  and  CG_2062
REMARK  1165  A    between atoms: CG_2062  and  CD1_2063
REMARK  1166  A    between atoms: CG_2062  and  CD2_2064
REMARK  1167  A    between atoms: N_2065  and  CA_2066
REMARK  1168  A    between atoms: CA_2066  and  C_2067
REMARK  1169  A    between atoms: CA_2066  and  CB_2069
REMARK  1170  A    between atoms: CB_2069  and  CG_2070
REMARK  1171  A    between atoms: CG_2070  and  CD_2071
REMARK  1172  A    between atoms: N_2074  and  CA_2075
REMARK  1173  A    between atoms: CA_2075  and  C_2076
REMARK  1174  A    between atoms: CA_2075  and  CB_2078
REMARK  1175  A    between atoms: CB_2078  and  CG_2079
REMARK  1176  A    between atoms: CA_2085  and  C_2086
REMARK  1177  A    between atoms: N_2091  and  CA_2092
REMARK  1178  A    between atoms: CA_2092  and  C_2093
REMARK  1179  A    between atoms: CA_2092  and  CB_2095
REMARK  1180  A    between atoms: CB_2095  and  CG_2096
REMARK  1181  A    between atoms: N_2105  and  CA_2106
REMARK  1182  A    between atoms: CA_2106  and  C_2107
REMARK  1183  A    between atoms: CA_2106  and  CB_2109
REMARK  1184  A    between atoms: CB_2109  and  CG1_2110
REMARK  1185  A    between atoms: CB_2109  and  CG2_2111
REMARK  1186  A    between atoms: CG1_2110  and  CD1_2112
REMARK  1187  A    between atoms: N_2113  and  CA_2114
REMARK  1188  A    between atoms: CA_2114  and  C_2115
REMARK  1189  A    between atoms: CA_2114  and  CB_2117
REMARK  1190  A    between atoms: CB_2117  and  OG1_2118
REMARK  1191  A    between atoms: CB_2117  and  CG2_2119
REMARK  1192  A    between atoms: N_2120  and  CA_2121
REMARK  1193  A    between atoms: CA_2121  and  C_2122
REMARK  1194  A    between atoms: CA_2121  and  CB_2124
REMARK  1195  A    between atoms: N_2125  and  CA_2126
REMARK  1196  A    between atoms: CA_2126  and  C_2127
REMARK  1197  A    between atoms: CA_2126  and  CB_2129
REMARK  1198  A    between atoms: CB_2129  and  CG_2130
REMARK  1199  A    between atoms: N_2133  and  CA_2134
REMARK  1200  A    between atoms: CA_2134  and  C_2135
REMARK  1201  A    between atoms: CA_2134  and  CB_2137
REMARK  1202  A    between atoms: CB_2137  and  OG_2138
REMARK  1203  A    between atoms: N_2139  and  CA_2140
REMARK  1204  A    between atoms: CA_2140  and  C_2141
REMARK  1205  A    between atoms: CA_2140  and  CB_2143
REMARK  1206  A    between atoms: CB_2143  and  OG_2144
REMARK  1207  A    between atoms: N_2145  and  C_2146
REMARK  1208  A    between atoms: C_2146  and  C_2147
REMARK  1209  A    between atoms: C_2146  and  C_2149
REMARK  1210  A    between atoms: C_2149  and  C_2150
REMARK  1211  A    between atoms: N_2151  and  CA_2152
REMARK  1212  A    between atoms: CA_2152  and  C_2153
REMARK  1213  A    between atoms: CA_2152  and  CB_2155
REMARK  1214  A    between atoms: CB_2155  and  OG_2156
REMARK  1215  A    between atoms: N_2157  and  CA_2158
REMARK  1216  A    between atoms: CA_2158  and  C_2159
REMARK  1217  A    between atoms: CA_2158  and  CB_2161
REMARK  1218  A    between atoms: CB_2161  and  CG_2162
REMARK  1219  A    between atoms: CG_2162  and  CD_2163
REMARK  1220  A    between atoms: CA_2167  and  C_2168
REMARK  1221  A    between atoms: CA_2174  and  C_2175
REMARK  1222  A    between atoms: N_2180  and  CA_2181
REMARK  1223  A    between atoms: CA_2181  and  C_2182
REMARK  1224  A    between atoms: CA_2181  and  CB_2184
REMARK  1225  A    between atoms: CB_2184  and  OG_2185
REMARK  1226  A    between atoms: N_2186  and  CA_2187
REMARK  1227  A    between atoms: CA_2187  and  C_2188
REMARK  1228  A    between atoms: CA_2187  and  CB_2190
REMARK  1229  A    between atoms: CB_2190  and  CG_2191
REMARK  1230  A    between atoms: N_2200  and  CA_2201
REMARK  1231  A    between atoms: CA_2201  and  C_2202
REMARK  1232  A    between atoms: CA_2201  and  CB_2204
REMARK  1233  A    between atoms: CB_2204  and  CG2_2205
REMARK  1234  A    between atoms: CB_2204  and  CG1_2206
REMARK  1235  A    between atoms: N_2207  and  CA_2208
REMARK  1236  A    between atoms: CA_2208  and  C_2209
REMARK  1237  A    between atoms: CA_2208  and  CB_2211
REMARK  1238  A    between atoms: CB_2211  and  OG1_2212
REMARK  1239  A    between atoms: CB_2211  and  CG2_2213
REMARK  1240  A    between atoms: N_2214  and  CA_2215
REMARK  1241  A    between atoms: CA_2215  and  C_2216
REMARK  1242  A    between atoms: CA_2215  and  CB_2218
REMARK  1243  A    between atoms: CB_2218  and  CG_2219
REMARK  1244  A    between atoms: CG_2219  and  CD_2220
REMARK  1245  A    between atoms: N_2223  and  CA_2224
REMARK  1246  A    between atoms: CA_2224  and  C_2225
REMARK  1247  A    between atoms: CA_2224  and  CB_2227
REMARK  1248  A    between atoms: CB_2227  and  CG_2228
REMARK  1249  A    between atoms: CG_2228  and  SD_2229
REMARK  1250  A    between atoms: SD_2229  and  CE_2230
REMARK  1251  A    between atoms: N_2231  and  CA_2232
REMARK  1252  A    between atoms: CA_2232  and  C_2233
REMARK  1253  A    between atoms: CA_2232  and  CB_2235
REMARK  1254  A    between atoms: CB_2235  and  CG_2236
REMARK  1255  A    between atoms: CG_2236  and  CD1_2237
REMARK  1256  A    between atoms: CG_2236  and  CD2_2238
REMARK  1257  A    between atoms: N_2239  and  CA_2240
REMARK  1258  A    between atoms: CA_2240  and  C_2241
REMARK  1259  A    between atoms: CA_2240  and  CB_2243
REMARK  1260  A    between atoms: CB_2243  and  CG_2244
REMARK  1261  A    between atoms: CG_2244  and  CD1_2245
REMARK  1262  A    between atoms: CG_2244  and  CD2_2246
REMARK  1263  A    between atoms: N_2247  and  CA_2248
REMARK  1264  A    between atoms: CA_2248  and  C_2249
REMARK  1265  A    between atoms: CA_2248  and  CB_2251
REMARK  1266  A    between atoms: CB_2251  and  CG_2252
REMARK  1267  A    between atoms: CG_2252  and  CD_2253
REMARK  1268  A    between atoms: N_2256  and  CA_2257
REMARK  1269  A    between atoms: CA_2257  and  C_2258
REMARK  1270  A    between atoms: CA_2257  and  CB_2260
REMARK  1271  A    between atoms: CB_2260  and  CG_2261
REMARK  1272  A    between atoms: CG_2261  and  CD_2262
REMARK  1273  A    between atoms: CD_2262  and  CE_2263
REMARK  1274  A    between atoms: CE_2263  and  NZ_2264
REMARK  1275  A    between atoms: N_2265  and  C_2266
REMARK  1276  A    between atoms: C_2266  and  C_2267
REMARK  1277  A    between atoms: C_2266  and  C_2269
REMARK  1278  A    between atoms: C_2269  and  C_2270
REMARK  1279  A    between atoms: N_2271  and  CA_2272
REMARK  1280  A    between atoms: CA_2272  and  C_2273
REMARK  1281  A    between atoms: CA_2272  and  CB_2275
REMARK  1282  A    between atoms: CB_2275  and  CG_2276
REMARK  1283  A    between atoms: CG_2276  and  CD2_2277
REMARK  1284  A    between atoms: CG_2276  and  CD1_2278
REMARK  1285  A    between atoms: N_2279  and  CA_2280
REMARK  1286  A    between atoms: CA_2280  and  C_2281
REMARK  1287  A    between atoms: CA_2280  and  CB_2283
REMARK  1288  A    between atoms: CB_2283  and  CG_2284
REMARK  1289  A    between atoms: N_2293  and  CA_2294
REMARK  1290  A    between atoms: CA_2294  and  C_2295
REMARK                            x       y       z     vdW  Elec       q    Type
REMARK                         _______ _______ _______ _____ _____    ______ ____
ROOT
ATOM      1  C   UNL     2     -29.080  31.866  -3.704  0.00  0.00    -0.015 C 
ATOM      2  C   UNL     2     -28.952  31.152  -4.453  0.00  0.00    +0.007 C 
ENDROOT
BRANCH   1   3
ATOM      3  C   UNL     2     -29.106  31.791  -3.089  0.00  0.00    -0.000 C 
ATOM      4  C   UNL     2     -28.098  31.166  -2.793  0.00  0.00    +0.004 C 
ENDBRANCH   1   3
BRANCH   1   6
ATOM      5  C   UNL     2     -30.223  31.110  -2.308  0.00  0.00    +0.004 C 
ATOM      6  C   UNL     2     -30.369  31.073  -3.782  0.00  0.00    -0.000 C 
ENDBRANCH   1   6
TORSDOF 2
REMARK  Name = /Users/wangyang/Desktop/Breast_cancer_brain_metastasis/wang_Gene/AIDD/15_Protein_ligand_docking/data_7ztl/protein.pdb
REMARK  1290 active torsions:
REMARK  status: ('A' for Active; 'I' for Inactive)
REMARK    1  A    between atoms: N_1  and  CA_2
REMARK    2  A    between atoms: CA_2  and  C_3
REMARK    3  A    between atoms: N_5  and  CA_6
REMARK    4  A    between atoms: CA_6  and  C_7
REMARK    5  A    between atoms: CA_6  and  CB_9
REMARK    6  A    between atoms: N_10  and  CA_11
REMARK    7  A    between atoms: CA_11  and  C_12
REMARK    8  A    between atoms: CA_11  and  CB_14
REMARK    9  A    between atoms: CB_14  and  CG_15
REMARK   10  A    between atoms: N_24  and  CA_25
REMARK   11  A    between atoms: CA_25  and  C_26
REMARK   12  A    between atoms: CA_25  and  CB_28
REMARK   13  A    between atoms: N_29  and  CA_30
REMARK   14  A    between atoms: CA_30  and  C_31
REMARK   15  A    between atoms: CA_30  and  CB_33
REMARK   16  A    between atoms: CB_33  and  CG_34
REMARK   17  A    between atoms: CG_34  and  CD1_35
REMARK   18  A    between atoms: CG_34  and  CD2_36
REMARK   19  A    between atoms: N_37  and  CA_38
REMARK   20  A    between atoms: CA_38  and  C_39
REMARK   21  A    between atoms: CA_38  and  CB_41
REMARK   22  A    between atoms: CB_41  and  CG_42
REMARK   23  A    between atoms: CG_42  and  CD_43
REMARK   24  A    between atoms: N_46  and  CA_47
REMARK   25  A    between atoms: CA_47  and  C_48
REMARK   26  A    between atoms: CA_47  and  CB_50
REMARK   27  A    between atoms: CB_50  and  CG_51
REMARK   28  A    between atoms: N_54  and  CA_55
REMARK   29  A    between atoms: CA_55  and  C_56
REMARK   30  A    between atoms: CA_55  and  CB_58
REMARK   31  A    between atoms: CB_58  and  CG_59
REMARK   32  A    between atoms: N_65  and  CA_66
REMARK   33  A    between atoms: CA_66  and  C_67
REMARK   34  A    between atoms: CA_66  and  CB_69
REMARK   35  A    between atoms: CB_69  and  CG_70
REMARK   36  A    between atoms: CG_70  and  CD_71
REMARK   37  A    between atoms: N_74  and  CA_75
REMARK   38  A    between atoms: CA_75  and  C_76
REMARK   39  A    between atoms: CA_75  and  CB_78
REMARK   40  A    between atoms: CB_78  and  CG1_79
REMARK   41  A    between atoms: CB_78  and  CG2_80
REMARK   42  A    between atoms: CG1_79  and  CD1_81
REMARK   43  A    between atoms: N_82  and  CA_83
REMARK   44  A    between atoms: CA_83  and  C_84
REMARK   45  A    between atoms: N_86  and  CA_87
REMARK   46  A    between atoms: CA_87  and  C_88
REMARK   47  A    between atoms: CA_87  and  CB_90
REMARK   48  A    between atoms: CB_90  and  CG_91
REMARK   49  A    between atoms: CG_91  and  CD_92
REMARK   50  A    between atoms: CD_92  and  NE_93
REMARK   51  A    between atoms: CA_98  and  C_99
REMARK   52  A    between atoms: N_104  and  CA_105
REMARK   53  A    between atoms: CA_105  and  C_106
REMARK   54  A    between atoms: CA_105  and  CB_108
REMARK   55  A    between atoms: CB_108  and  CG_109
REMARK   56  A    between atoms: CG_109  and  CD1_110
REMARK   57  A    between atoms: CG_109  and  CD2_111
REMARK   58  A    between atoms: N_112  and  CA_113
REMARK   59  A    between atoms: CA_113  and  C_114
REMARK   60  A    between atoms: N_116  and  C_117
REMARK   61  A    between atoms: C_117  and  C_118
REMARK   62  A    between atoms: C_117  and  C_120
REMARK   63  A    between atoms: C_120  and  C_121
REMARK   64  A    between atoms: C_121  and  C_122
REMARK   65  A    between atoms: N_123  and  CA_124
REMARK   66  A    between atoms: CA_124  and  C_125
REMARK   67  A    between atoms: N_127  and  CA_128
REMARK   68  A    between atoms: CA_128  and  C_129
REMARK   69  A    between atoms: CA_128  and  CB_131
REMARK   70  A    between atoms: CB_131  and  CG_132
REMARK   71  A    between atoms: CG_132  and  CD_133
REMARK   72  A    between atoms: CD_133  and  CE_134
REMARK   73  A    between atoms: CE_134  and  NZ_135
REMARK   74  A    between atoms: N_136  and  CA_137
REMARK   75  A    between atoms: CA_137  and  C_138
REMARK   76  A    between atoms: CA_137  and  CB_140
REMARK   77  A    between atoms: CB_140  and  CG_141
REMARK   78  A    between atoms: N_147  and  CA_148
REMARK   79  A    between atoms: CA_148  and  C_149
REMARK   80  A    between atoms: N_151  and  CA_152
REMARK   81  A    between atoms: CA_152  and  C_153
REMARK   82  A    between atoms: CA_152  and  CB_155
REMARK   83  A    between atoms: CB_155  and  CG_156
REMARK   84  A    between atoms: N_159  and  CA_160
REMARK   85  A    between atoms: CA_160  and  C_161
REMARK   86  A    between atoms: CA_160  and  CB_163
REMARK   87  A    between atoms: CB_163  and  CG1_164
REMARK   88  A    between atoms: CB_163  and  CG2_165
REMARK   89  A    between atoms: N_166  and  CA_167
REMARK   90  A    between atoms: CA_167  and  C_168
REMARK   91  A    between atoms: CA_167  and  CB_170
REMARK   92  A    between atoms: CB_170  and  CG_171
REMARK   93  A    between atoms: CZ_176  and  OH_177
REMARK   94  A    between atoms: N_178  and  CA_179
REMARK   95  A    between atoms: CA_179  and  C_180
REMARK   96  A    between atoms: CA_179  and  CB_182
REMARK   97  A    between atoms: CB_182  and  CG_183
REMARK   98  A    between atoms: CG_183  and  CD1_184
REMARK   99  A    between atoms: CG_183  and  CD2_185
REMARK  100  A    between atoms: N_186  and  CA_187
REMARK  101  A    between atoms: CA_187  and  C_188
REMARK  102  A    between atoms: CA_187  and  CB_190
REMARK  103  A    between atoms: N_191  and  CA_192
REMARK  104  A    between atoms: CA_192  and  C_193
REMARK  105  A    between atoms: CA_192  and  CB_195
REMARK  106  A    between atoms: CB_195  and  CG_196
REMARK  107  A    between atoms: CG_196  and  CD_197
REMARK  108  A    between atoms: CD_197  and  NE_198
REMARK  109  A    between atoms: N_202  and  CA_203
REMARK  110  A    between atoms: CA_203  and  C_204
REMARK  111  A    between atoms: CA_203  and  CB_206
REMARK  112  A    between atoms: CB_206  and  CG_207
REMARK  113  A    between atoms: CG_207  and  CD_208
REMARK  114  A    between atoms: N_211  and  CA_212
REMARK  115  A    between atoms: CA_212  and  C_213
REMARK  116  A    between atoms: CA_212  and  CB_215
REMARK  117  A    between atoms: CB_215  and  CG_216
REMARK  118  A    between atoms: CG_216  and  CD_217
REMARK  119  A    between atoms: CD_217  and  CE_218
REMARK  120  A    between atoms: CE_218  and  NZ_219
REMARK  121  A    between atoms: N_220  and  CA_221
REMARK  122  A    between atoms: CA_221  and  C_222
REMARK  123  A    between atoms: CA_221  and  CB_224
REMARK  124  A    between atoms: N_225  and  CA_226
REMARK  125  A    between atoms: CA_226  and  C_227
REMARK  126  A    between atoms: CA_226  and  CB_229
REMARK  127  A    between atoms: CB_229  and  OG_230
REMARK  128  A    between atoms: N_231  and  CA_232
REMARK  129  A    between atoms: CA_232  and  C_233
REMARK  130  A    between atoms: CA_232  and  CB_235
REMARK  131  A    between atoms: CB_235  and  CG_236
REMARK  132  A    between atoms: CG_236  and  CD_237
REMARK  133  A    between atoms: CD_237  and  CE_238
REMARK  134  A    between atoms: CE_238  and  NZ_239
REMARK  135  A    between atoms: N_240  and  CA_241
REMARK  136  A    between atoms: CA_241  and  C_242
REMARK  137  A    between atoms: CA_241  and  CB_244
REMARK  138  A    between atoms: CB_244  and  CG_245
REMARK  139  A    between atoms: N_251  and  CA_252
REMARK  140  A    between atoms: CA_252  and  C_253
REMARK  141  A    between atoms: CA_252  and  CB_255
REMARK  142  A    between atoms: CB_255  and  CG1_256
REMARK  143  A    between atoms: CB_255  and  CG2_257
REMARK  144  A    between atoms: CG1_256  and  CD1_258
REMARK  145  A    between atoms: N_259  and  CA_260
REMARK  146  A    between atoms: CA_260  and  C_261
REMARK  147  A    between atoms: CA_260  and  CB_263
REMARK  148  A    between atoms: CB_263  and  CG_264
REMARK  149  A    between atoms: CG_264  and  CD1_265
REMARK  150  A    between atoms: CG_264  and  CD2_266
REMARK  151  A    between atoms: N_267  and  CA_268
REMARK  152  A    between atoms: CA_268  and  C_269
REMARK  153  A    between atoms: CA_268  and  CB_271
REMARK  154  A    between atoms: N_272  and  CA_273
REMARK  155  A    between atoms: CA_273  and  C_274
REMARK  156  A    between atoms: CA_273  and  CB_276
REMARK  157  A    between atoms: CB_276  and  CG_277
REMARK  158  A    between atoms: CG_277  and  CD2_278
REMARK  159  A    between atoms: CG_277  and  CD1_279
REMARK  160  A    between atoms: N_280  and  CA_281
REMARK  161  A    between atoms: CA_281  and  C_282
REMARK  162  A    between atoms: CA_281  and  CB_284
REMARK  163  A    between atoms: CB_284  and  CG_285
REMARK  164  A    between atoms: CG_285  and  CD_286
REMARK  165  A    between atoms: CD_286  and  CE_287
REMARK  166  A    between atoms: CE_287  and  NZ_288
REMARK  167  A    between atoms: N_289  and  CA_290
REMARK  168  A    between atoms: CA_290  and  C_291
REMARK  169  A    between atoms: CA_290  and  CB_293
REMARK  170  A    between atoms: CB_293  and  CG2_294
REMARK  171  A    between atoms: CB_293  and  CG1_295
REMARK  172  A    between atoms: N_296  and  CA_297
REMARK  173  A    between atoms: CA_297  and  C_298
REMARK  174  A    between atoms: CA_297  and  CB_300
REMARK  175  A    between atoms: CB_300  and  CG_301
REMARK  176  A    between atoms: CG_301  and  CD1_302
REMARK  177  A    between atoms: CG_301  and  CD2_303
REMARK  178  A    between atoms: N_304  and  CA_305
REMARK  179  A    between atoms: CA_305  and  C_306
REMARK  180  A    between atoms: CA_305  and  CB_308
REMARK  181  A    between atoms: CB_308  and  CG_309
REMARK  182  A    between atoms: N_315  and  CA_316
REMARK  183  A    between atoms: CA_316  and  C_317
REMARK  184  A    between atoms: CA_316  and  CB_319
REMARK  185  A    between atoms: CB_319  and  CG_320
REMARK  186  A    between atoms: CG_320  and  CD_321
REMARK  187  A    between atoms: CD_321  and  CE_322
REMARK  188  A    between atoms: CE_322  and  NZ_323
REMARK  189  A    between atoms: N_324  and  CA_325
REMARK  190  A    between atoms: CA_325  and  C_326
REMARK  191  A    between atoms: CA_325  and  CB_328
REMARK  192  A    between atoms: N_329  and  CA_330
REMARK  193  A    between atoms: CA_330  and  C_331
REMARK  194  A    between atoms: CA_330  and  CB_333
REMARK  195  A    between atoms: CB_333  and  CG_334
REMARK  196  A    between atoms: CG_334  and  CD_335
REMARK  197  A    between atoms: N_338  and  CA_339
REMARK  198  A    between atoms: CA_339  and  C_340
REMARK  199  A    between atoms: CA_339  and  CB_342
REMARK  200  A    between atoms: CB_342  and  CG_343
REMARK  201  A    between atoms: CG_343  and  CD1_344
REMARK  202  A    between atoms: CG_343  and  CD2_345
REMARK  203  A    between atoms: N_346  and  CA_347
REMARK  204  A    between atoms: CA_347  and  C_348
REMARK  205  A    between atoms: CA_347  and  CB_350
REMARK  206  A    between atoms: CB_350  and  CG_351
REMARK  207  A    between atoms: CG_351  and  CD_352
REMARK  208  A    between atoms: N_355  and  C_356
REMARK  209  A    between atoms: C_356  and  C_357
REMARK  210  A    between atoms: C_356  and  C_359
REMARK  211  A    between atoms: C_359  and  C_360
REMARK  212  A    between atoms: N_361  and  CA_362
REMARK  213  A    between atoms: CA_362  and  C_363
REMARK  214  A    between atoms: CA_362  and  CB_365
REMARK  215  A    between atoms: N_366  and  CA_367
REMARK  216  A    between atoms: CA_367  and  C_368
REMARK  217  A    between atoms: N_370  and  CA_371
REMARK  218  A    between atoms: CA_371  and  C_372
REMARK  219  A    between atoms: CA_371  and  CB_374
REMARK  220  A    between atoms: CB_374  and  CG2_375
REMARK  221  A    between atoms: CB_374  and  CG1_376
REMARK  222  A    between atoms: N_377  and  CA_378
REMARK  223  A    between atoms: CA_378  and  C_379
REMARK  224  A    between atoms: CA_378  and  CB_381
REMARK  225  A    between atoms: CB_381  and  CG_382
REMARK  226  A    between atoms: CG_382  and  CD_383
REMARK  227  A    between atoms: N_386  and  CA_387
REMARK  228  A    between atoms: CA_387  and  C_388
REMARK  229  A    between atoms: CA_387  and  CB_390
REMARK  230  A    between atoms: CB_390  and  CG_391
REMARK  231  A    between atoms: N_396  and  CA_397
REMARK  232  A    between atoms: CA_397  and  C_398
REMARK  233  A    between atoms: CA_397  and  CB_400
REMARK  234  A    between atoms: CB_400  and  CG_401
REMARK  235  A    between atoms: CG_401  and  CD_402
REMARK  236  A    between atoms: N_405  and  CA_406
REMARK  237  A    between atoms: CA_406  and  C_407
REMARK  238  A    between atoms: CA_406  and  CB_409
REMARK  239  A    between atoms: CB_409  and  CG_410
REMARK  240  A    between atoms: CG_410  and  CD2_411
REMARK  241  A    between atoms: CG_410  and  CD1_412
REMARK  242  A    between atoms: N_413  and  CA_414
REMARK  243  A    between atoms: CA_414  and  C_415
REMARK  244  A    between atoms: CA_414  and  CB_417
REMARK  245  A    between atoms: CB_417  and  CG_418
REMARK  246  A    between atoms: CG_418  and  CD_419
REMARK  247  A    between atoms: CD_419  and  NE_420
REMARK  248  A    between atoms: N_424  and  CA_425
REMARK  249  A    between atoms: CA_425  and  C_426
REMARK  250  A    between atoms: CA_425  and  CB_428
REMARK  251  A    between atoms: CB_428  and  CG_429
REMARK  252  A    between atoms: CG_429  and  CD_430
REMARK  253  A    between atoms: CD_430  and  NE_431
REMARK  254  A    between atoms: N_435  and  CA_436
REMARK  255  A    between atoms: CA_436  and  C_437
REMARK  256  A    between atoms: CA_436  and  CB_439
REMARK  257  A    between atoms: CB_439  and  CG_440
REMARK  258  A    between atoms: CG_440  and  CD_441
REMARK  259  A    between atoms: N_444  and  CA_445
REMARK  260  A    between atoms: CA_445  and  C_446
REMARK  261  A    between atoms: CA_445  and  CB_448
REMARK  262  A    between atoms: CB_448  and  CG1_449
REMARK  263  A    between atoms: CB_448  and  CG2_450
REMARK  264  A    between atoms: N_451  and  C_452
REMARK  265  A    between atoms: C_452  and  C_453
REMARK  266  A    between atoms: C_452  and  C_455
REMARK  267  A    between atoms: C_455  and  C_456
REMARK  268  A    between atoms: N_457  and  CA_458
REMARK  269  A    between atoms: CA_458  and  C_459
REMARK  270  A    between atoms: CA_458  and  CB_461
REMARK  271  A    between atoms: CB_461  and  CG1_462
REMARK  272  A    between atoms: CB_461  and  CG2_463
REMARK  273  A    between atoms: CG1_462  and  CD1_464
REMARK  274  A    between atoms: N_465  and  CA_466
REMARK  275  A    between atoms: CA_466  and  C_467
REMARK  276  A    between atoms: CA_466  and  CB_469
REMARK  277  A    between atoms: CB_469  and  CG_470
REMARK  278  A    between atoms: CG_470  and  CD_471
REMARK  279  A    between atoms: N_474  and  C_475
REMARK  280  A    between atoms: C_475  and  C_476
REMARK  281  A    between atoms: C_475  and  C_478
REMARK  282  A    between atoms: C_478  and  O_479
REMARK  283  A    between atoms: N_480  and  C_481
REMARK  284  A    between atoms: C_481  and  C_482
REMARK  285  A    between atoms: C_481  and  C_484
REMARK  286  A    between atoms: C_484  and  C_485
REMARK  287  A    between atoms: N_490  and  C_491
REMARK  288  A    between atoms: C_491  and  C_492
REMARK  289  A    between atoms: C_491  and  C_494
REMARK  290  A    between atoms: C_494  and  C_495
REMARK  291  A    between atoms: C_495  and  C_496
REMARK  292  A    between atoms: C_495  and  C_497
REMARK  293  A    between atoms: N_498  and  C_499
REMARK  294  A    between atoms: C_499  and  C_500
REMARK  295  A    between atoms: C_499  and  C_502
REMARK  296  A    between atoms: C_502  and  C_503
REMARK  297  A    between atoms: C_503  and  C_504
REMARK  298  A    between atoms: C_504  and  N_505
REMARK  299  A    between atoms: N_509  and  C_510
REMARK  300  A    between atoms: C_510  and  C_511
REMARK  301  A    between atoms: C_510  and  C_513
REMARK  302  A    between atoms: C_513  and  C_514
REMARK  303  A    between atoms: C_520  and  C_521
REMARK  304  A    between atoms: N_526  and  C_527
REMARK  305  A    between atoms: C_527  and  C_528
REMARK  306  A    between atoms: C_527  and  C_530
REMARK  307  A    between atoms: C_530  and  C_531
REMARK  308  A    between atoms: N_534  and  C_535
REMARK  309  A    between atoms: C_535  and  C_536
REMARK  310  A    between atoms: C_535  and  C_538
REMARK  311  A    between atoms: C_538  and  C_539
REMARK  312  A    between atoms: C_538  and  C_540
REMARK  313  A    between atoms: C_539  and  C_541
REMARK  314  A    between atoms: N_542  and  C_543
REMARK  315  A    between atoms: C_543  and  C_544
REMARK  316  A    between atoms: C_543  and  C_546
REMARK  317  A    between atoms: C_546  and  C_547
REMARK  318  A    between atoms: C_547  and  C_548
REMARK  319  A    between atoms: C_547  and  C_549
REMARK  320  A    between atoms: N_550  and  C_551
REMARK  321  A    between atoms: C_551  and  C_552
REMARK  322  A    between atoms: C_551  and  C_554
REMARK  323  A    between atoms: C_554  and  C_555
REMARK  324  A    between atoms: C_555  and  C_556
REMARK  325  A    between atoms: C_556  and  N_557
REMARK  326  A    between atoms: N_561  and  C_562
REMARK  327  A    between atoms: C_562  and  C_567
REMARK  328  A    between atoms: C_563  and  C_564
REMARK  329  A    between atoms: C_568  and  C_569
REMARK  330  A    between atoms: C_568  and  C_571
REMARK  331  A    between atoms: C_569  and  C_572
REMARK  332  A    between atoms: C_569  and  C_573
REMARK  333  A    between atoms: C_570  and  C_573
REMARK  334  A    between atoms: N_574  and  CA_575
REMARK  335  A    between atoms: CA_575  and  C_576
REMARK  336  A    between atoms: CA_575  and  CB_578
REMARK  337  A    between atoms: CB_578  and  CG_579
REMARK  338  A    between atoms: CZ_584  and  OH_585
REMARK  339  A    between atoms: N_586  and  CA_587
REMARK  340  A    between atoms: CA_587  and  C_588
REMARK  341  A    between atoms: N_590  and  CA_591
REMARK  342  A    between atoms: CA_591  and  C_592
REMARK  343  A    between atoms: CA_591  and  CB_594
REMARK  344  A    between atoms: CB_594  and  CG_595
REMARK  345  A    between atoms: CZ_600  and  OH_601
REMARK  346  A    between atoms: N_602  and  CA_603
REMARK  347  A    between atoms: CA_603  and  C_604
REMARK  348  A    between atoms: CA_603  and  CB_606
REMARK  349  A    between atoms: CB_606  and  CG_607
REMARK  350  A    between atoms: N_613  and  CA_614
REMARK  351  A    between atoms: CA_614  and  C_615
REMARK  352  A    between atoms: CA_614  and  CB_617
REMARK  353  A    between atoms: CB_617  and  CG_618
REMARK  354  A    between atoms: N_623  and  CA_624
REMARK  355  A    between atoms: CA_624  and  C_625
REMARK  356  A    between atoms: CA_624  and  CB_627
REMARK  357  A    between atoms: CB_627  and  CG_628
REMARK  358  A    between atoms: N_631  and  CA_632
REMARK  359  A    between atoms: CA_632  and  C_633
REMARK  360  A    between atoms: CA_632  and  CB_635
REMARK  361  A    between atoms: N_636  and  CA_637
REMARK  362  A    between atoms: CA_637  and  C_638
REMARK  363  A    between atoms: CA_637  and  CB_640
REMARK  364  A    between atoms: CB_640  and  OG1_641
REMARK  365  A    between atoms: CB_640  and  CG2_642
REMARK  366  A    between atoms: N_643  and  CA_644
REMARK  367  A    between atoms: CA_644  and  C_645
REMARK  368  A    between atoms: CA_644  and  CB_647
REMARK  369  A    between atoms: CB_647  and  CG_648
REMARK  370  A    between atoms: CG_648  and  CD_649
REMARK  371  A    between atoms: CD_649  and  NE_650
REMARK  372  A    between atoms: N_654  and  CA_655
REMARK  373  A    between atoms: CA_655  and  C_656
REMARK  374  A    between atoms: CA_655  and  CB_658
REMARK  375  A    between atoms: CB_658  and  CG1_659
REMARK  376  A    between atoms: CB_658  and  CG2_660
REMARK  377  A    between atoms: N_661  and  CA_662
REMARK  378  A    between atoms: CA_662  and  C_663
REMARK  379  A    between atoms: CA_662  and  CB_665
REMARK  380  A    between atoms: CB_665  and  CG_666
REMARK  381  A    between atoms: CZ_671  and  OH_672
REMARK  382  A    between atoms: N_673  and  CA_674
REMARK  383  A    between atoms: CA_674  and  C_675
REMARK  384  A    between atoms: CA_674  and  CB_677
REMARK  385  A    between atoms: CB_677  and  CG_678
REMARK  386  A    between atoms: CG_678  and  CD2_679
REMARK  387  A    between atoms: CG_678  and  CD1_680
REMARK  388  A    between atoms: N_681  and  CA_682
REMARK  389  A    between atoms: CA_682  and  C_683
REMARK  390  A    between atoms: CA_682  and  CB_685
REMARK  391  A    between atoms: CB_685  and  CG1_686
REMARK  392  A    between atoms: CB_685  and  CG2_687
REMARK  393  A    between atoms: CG1_686  and  CD1_688
REMARK  394  A    between atoms: N_689  and  CA_690
REMARK  395  A    between atoms: CA_690  and  C_691
REMARK  396  A    between atoms: CA_690  and  CB_693
REMARK  397  A    between atoms: CB_693  and  CG_694
REMARK  398  A    between atoms: CG_694  and  CD2_695
REMARK  399  A    between atoms: CG_694  and  CD1_696
REMARK  400  A    between atoms: N_697  and  CA_698
REMARK  401  A    between atoms: CA_698  and  C_699
REMARK  402  A    between atoms: CA_698  and  CB_701
REMARK  403  A    between atoms: CB_701  and  CG_702
REMARK  404  A    between atoms: CG_702  and  CD_703
REMARK  405  A    between atoms: N_706  and  CA_707
REMARK  406  A    between atoms: CA_707  and  C_708
REMARK  407  A    between atoms: CA_707  and  CB_710
REMARK  408  A    between atoms: CB_710  and  CG_711
REMARK  409  A    between atoms: CZ_716  and  OH_717
REMARK  410  A    between atoms: N_718  and  CA_719
REMARK  411  A    between atoms: CA_719  and  C_720
REMARK  412  A    between atoms: CA_719  and  CB_722
REMARK  413  A    between atoms: CA_724  and  C_725
REMARK  414  A    between atoms: N_730  and  CA_731
REMARK  415  A    between atoms: CA_731  and  C_732
REMARK  416  A    between atoms: CA_731  and  CB_734
REMARK  417  A    between atoms: CB_734  and  CG_735
REMARK  418  A    between atoms: CG_735  and  CD1_736
REMARK  419  A    between atoms: CG_735  and  CD2_737
REMARK  420  A    between atoms: N_738  and  CA_739
REMARK  421  A    between atoms: CA_739  and  C_740
REMARK  422  A    between atoms: N_742  and  CA_743
REMARK  423  A    between atoms: CA_743  and  C_744
REMARK  424  A    between atoms: CA_743  and  CB_746
REMARK  425  A    between atoms: CB_746  and  OG1_747
REMARK  426  A    between atoms: CB_746  and  CG2_748
REMARK  427  A    between atoms: N_749  and  CA_750
REMARK  428  A    between atoms: CA_750  and  C_751
REMARK  429  A    between atoms: CA_750  and  CB_753
REMARK  430  A    between atoms: CB_753  and  CG2_754
REMARK  431  A    between atoms: CB_753  and  CG1_755
REMARK  432  A    between atoms: N_756  and  CA_757
REMARK  433  A    between atoms: CA_757  and  C_758
REMARK  434  A    between atoms: CA_757  and  CB_760
REMARK  435  A    between atoms: CB_760  and  CG_761
REMARK  436  A    between atoms: CZ_766  and  OH_767
REMARK  437  A    between atoms: N_768  and  C_769
REMARK  438  A    between atoms: C_769  and  C_770
REMARK  439  A    between atoms: C_769  and  C_772
REMARK  440  A    between atoms: C_772  and  C_773
REMARK  441  A    between atoms: N_774  and  CA_775
REMARK  442  A    between atoms: CA_775  and  C_776
REMARK  443  A    between atoms: CA_775  and  CB_778
REMARK  444  A    between atoms: CB_778  and  CG_779
REMARK  445  A    between atoms: CG_779  and  CD_780
REMARK  446  A    between atoms: N_783  and  CA_784
REMARK  447  A    between atoms: CA_784  and  C_785
REMARK  448  A    between atoms: CA_784  and  CB_787
REMARK  449  A    between atoms: CB_787  and  CG_788
REMARK  450  A    between atoms: CG_788  and  CD2_789
REMARK  451  A    between atoms: CG_788  and  CD1_790
REMARK  452  A    between atoms: N_791  and  CA_792
REMARK  453  A    between atoms: CA_792  and  C_793
REMARK  454  A    between atoms: CA_792  and  CB_795
REMARK  455  A    between atoms: CB_795  and  CG_796
REMARK  456  A    between atoms: CG_796  and  CD_797
REMARK  457  A    between atoms: N_800  and  CA_801
REMARK  458  A    between atoms: CA_801  and  C_802
REMARK  459  A    between atoms: CA_801  and  CB_804
REMARK  460  A    between atoms: CB_804  and  CG_805
REMARK  461  A    between atoms: CG_805  and  CD_806
REMARK  462  A    between atoms: CD_806  and  CE_807
REMARK  463  A    between atoms: CE_807  and  NZ_808
REMARK  464  A    between atoms: N_809  and  CA_810
REMARK  465  A    between atoms: CA_810  and  C_811
REMARK  466  A    between atoms: CA_810  and  CB_813
REMARK  467  A    between atoms: CB_813  and  CG_814
REMARK  468  A    between atoms: CG_814  and  CD1_815
REMARK  469  A    between atoms: CG_814  and  CD2_816
REMARK  470  A    between atoms: N_817  and  CA_818
REMARK  471  A    between atoms: CA_818  and  C_819
REMARK  472  A    between atoms: CA_818  and  CB_821
REMARK  473  A    between atoms: CB_821  and  OG_822
REMARK  474  A    between atoms: N_823  and  CA_824
REMARK  475  A    between atoms: CA_824  and  C_825
REMARK  476  A    between atoms: CA_824  and  CB_827
REMARK  477  A    between atoms: CB_827  and  CG_828
REMARK  478  A    between atoms: CG_828  and  CD_829
REMARK  479  A    between atoms: CD_829  and  CE_830
REMARK  480  A    between atoms: CE_830  and  NZ_831
REMARK  481  A    between atoms: N_832  and  CA_833
REMARK  482  A    between atoms: CA_833  and  C_834
REMARK  483  A    between atoms: CA_833  and  CB_836
REMARK  484  A    between atoms: CB_836  and  CG_837
REMARK  485  A    between atoms: N_843  and  CA_844
REMARK  486  A    between atoms: CA_844  and  C_845
REMARK  487  A    between atoms: CA_844  and  CB_847
REMARK  488  A    between atoms: CB_847  and  CG_848
REMARK  489  A    between atoms: N_851  and  CA_852
REMARK  490  A    between atoms: CA_852  and  C_853
REMARK  491  A    between atoms: CA_852  and  CB_855
REMARK  492  A    between atoms: CB_855  and  CG_856
REMARK  493  A    between atoms: CG_856  and  CD_857
REMARK  494  A    between atoms: N_860  and  CA_861
REMARK  495  A    between atoms: CA_861  and  C_862
REMARK  496  A    between atoms: CA_861  and  CB_864
REMARK  497  A    between atoms: CB_864  and  CG_865
REMARK  498  A    between atoms: CG_865  and  CD_866
REMARK  499  A    between atoms: N_869  and  CA_870
REMARK  500  A    between atoms: CA_870  and  C_871
REMARK  501  A    between atoms: CA_870  and  CB_873
REMARK  502  A    between atoms: CB_873  and  CG_874
REMARK  503  A    between atoms: CG_874  and  CD_875
REMARK  504  A    between atoms: CD_875  and  NE_876
REMARK  505  A    between atoms: N_880  and  CA_881
REMARK  506  A    between atoms: CA_881  and  C_882
REMARK  507  A    between atoms: CA_881  and  CB_884
REMARK  508  A    between atoms: CB_884  and  OG1_885
REMARK  509  A    between atoms: CB_884  and  CG2_886
REMARK  510  A    between atoms: N_887  and  CA_888
REMARK  511  A    between atoms: CA_888  and  C_889
REMARK  512  A    between atoms: CA_888  and  CB_891
REMARK  513  A    between atoms: N_892  and  CA_893
REMARK  514  A    between atoms: CA_893  and  C_894
REMARK  515  A    between atoms: CA_893  and  CB_896
REMARK  516  A    between atoms: CB_896  and  OG1_897
REMARK  517  A    between atoms: CB_896  and  CG2_898
REMARK  518  A    between atoms: N_899  and  CA_900
REMARK  519  A    between atoms: CA_900  and  C_901
REMARK  520  A    between atoms: CA_900  and  CB_903
REMARK  521  A    between atoms: CB_903  and  CG_904
REMARK  522  A    between atoms: CZ_909  and  OH_910
REMARK  523  A    between atoms: N_911  and  CA_912
REMARK  524  A    between atoms: CA_912  and  C_913
REMARK  525  A    between atoms: CA_912  and  CB_915
REMARK  526  A    between atoms: CB_915  and  CG1_916
REMARK  527  A    between atoms: CB_915  and  CG2_917
REMARK  528  A    between atoms: CG1_916  and  CD1_918
REMARK  529  A    between atoms: N_919  and  CA_920
REMARK  530  A    between atoms: CA_920  and  C_921
REMARK  531  A    between atoms: CA_920  and  CB_923
REMARK  532  A    between atoms: CB_923  and  OG1_924
REMARK  533  A    between atoms: CB_923  and  CG2_925
REMARK  534  A    between atoms: N_926  and  CA_927
REMARK  535  A    between atoms: CA_927  and  C_928
REMARK  536  A    between atoms: CA_927  and  CB_930
REMARK  537  A    between atoms: CB_930  and  CG_931
REMARK  538  A    between atoms: CG_931  and  CD_932
REMARK  539  A    between atoms: N_935  and  CA_936
REMARK  540  A    between atoms: CA_936  and  C_937
REMARK  541  A    between atoms: CA_936  and  CB_939
REMARK  542  A    between atoms: CB_939  and  CG_940
REMARK  543  A    between atoms: CG_940  and  CD2_941
REMARK  544  A    between atoms: CG_940  and  CD1_942
REMARK  545  A    between atoms: N_943  and  CA_944
REMARK  546  A    between atoms: CA_944  and  C_945
REMARK  547  A    between atoms: CA_944  and  CB_947
REMARK  548  A    between atoms: N_948  and  CA_949
REMARK  549  A    between atoms: CA_949  and  C_950
REMARK  550  A    between atoms: CA_949  and  CB_952
REMARK  551  A    between atoms: CB_952  and  CG_953
REMARK  552  A    between atoms: N_956  and  CA_957
REMARK  553  A    between atoms: CA_957  and  C_958
REMARK  554  A    between atoms: CA_957  and  CB_960
REMARK  555  A    between atoms: N_961  and  CA_962
REMARK  556  A    between atoms: CA_962  and  C_963
REMARK  557  A    between atoms: CA_962  and  CB_965
REMARK  558  A    between atoms: CB_965  and  CG_966
REMARK  559  A    between atoms: CG_966  and  CD2_967
REMARK  560  A    between atoms: CG_966  and  CD1_968
REMARK  561  A    between atoms: N_969  and  CA_970
REMARK  562  A    between atoms: CA_970  and  C_971
REMARK  563  A    between atoms: CA_970  and  CB_973
REMARK  564  A    between atoms: CB_973  and  OG_974
REMARK  565  A    between atoms: N_975  and  CA_976
REMARK  566  A    between atoms: CA_976  and  C_977
REMARK  567  A    between atoms: CA_976  and  CB_979
REMARK  568  A    between atoms: CB_979  and  CG_980
REMARK  569  A    between atoms: CZ_985  and  OH_986
REMARK  570  A    between atoms: N_987  and  CA_988
REMARK  571  A    between atoms: CA_988  and  C_989
REMARK  572  A    between atoms: CA_988  and  CB_991
REMARK  573  A    between atoms: CB_991  and  SG_992
REMARK  574  A    between atoms: N_993  and  CA_994
REMARK  575  A    between atoms: CA_994  and  C_995
REMARK  576  A    between atoms: CA_994  and  CB_997
REMARK  577  A    between atoms: CB_997  and  CG_998
REMARK  578  A    between atoms: N_1003  and  C_1004
REMARK  579  A    between atoms: C_1004  and  C_1005
REMARK  580  A    between atoms: C_1004  and  C_1007
REMARK  581  A    between atoms: C_1007  and  O_1008
REMARK  582  A    between atoms: N_1009  and  C_1010
REMARK  583  A    between atoms: C_1010  and  C_1011
REMARK  584  A    between atoms: C_1010  and  C_1013
REMARK  585  A    between atoms: C_1013  and  C_1014
REMARK  586  A    between atoms: C_1014  and  C_1015
REMARK  587  A    between atoms: C_1015  and  C_1016
REMARK  588  A    between atoms: C_1016  and  N_1017
REMARK  589  A    between atoms: N_1018  and  C_1019
REMARK  590  A    between atoms: C_1020  and  C_1021
REMARK  591  A    between atoms: C_1020  and  C_1024
REMARK  592  A    between atoms: C_1023  and  C_1026
REMARK  593  A    between atoms: C_1025  and  C_1026
REMARK  594  A    between atoms: C_1027  and  N_1029
REMARK  595  A    between atoms: C_1028  and  N_1030
REMARK  596  A    between atoms: N_1037  and  C_1038
REMARK  597  A    between atoms: C_1038  and  C_1039
REMARK  598  A    between atoms: C_1038  and  C_1041
REMARK  599  A    between atoms: C_1041  and  C_1042
REMARK  600  A    between atoms: C_1041  and  C_1043
REMARK  601  A    between atoms: N_1044  and  C_1045
REMARK  602  A    between atoms: C_1045  and  C_1046
REMARK  603  A    between atoms: C_1045  and  C_1048
REMARK  604  A    between atoms: C_1048  and  C_1049
REMARK  605  A    between atoms: C_1048  and  C_1050
REMARK  606  A    between atoms: C_1049  and  C_1051
REMARK  607  A    between atoms: N_1052  and  C_1053
REMARK  608  A    between atoms: C_1053  and  C_1054
REMARK  609  A    between atoms: C_1053  and  C_1056
REMARK  610  A    between atoms: C_1056  and  C_1057
REMARK  611  A    between atoms: N_1062  and  C_1063
REMARK  612  A    between atoms: C_1063  and  C_1064
REMARK  613  A    between atoms: C_1063  and  C_1066
REMARK  614  A    between atoms: C_1066  and  C_1067
REMARK  615  A    between atoms: C_1067  and  C_1068
REMARK  616  A    between atoms: C_1068  and  N_1069
REMARK  617  A    between atoms: N_1073  and  C_1074
REMARK  618  A    between atoms: C_1074  and  C_1077
REMARK  619  A    between atoms: C_1077  and  C_1078
REMARK  620  A    between atoms: N_1081  and  C_1084
REMARK  621  A    between atoms: C_1083  and  C_1085
REMARK  622  A    between atoms: C_1085  and  C_1086
REMARK  623  A    between atoms: C_1085  and  O_1087
REMARK  624  A    between atoms: C_1085  and  N_1097
REMARK  625  A    between atoms: C_1089  and  C_1094
REMARK  626  A    between atoms: C_1090  and  C_1091
REMARK  627  A    between atoms: C_1093  and  C_1094
REMARK  628  A    between atoms: C_1098  and  C_1099
REMARK  629  A    between atoms: C_1098  and  C_1101
REMARK  630  A    between atoms: C_1101  and  C_1102
REMARK  631  A    between atoms: C_1102  and  C_1103
REMARK  632  A    between atoms: C_1103  and  C_1104
REMARK  633  A    between atoms: C_1104  and  N_1105
REMARK  634  A    between atoms: C_1107  and  C_1108
REMARK  635  A    between atoms: N_1113  and  CA_1114
REMARK  636  A    between atoms: CA_1114  and  C_1115
REMARK  637  A    between atoms: CA_1114  and  CB_1117
REMARK  638  A    between atoms: CB_1117  and  CG_1118
REMARK  639  A    between atoms: CG_1118  and  CD_1119
REMARK  640  A    between atoms: N_1122  and  CA_1123
REMARK  641  A    between atoms: CA_1123  and  C_1124
REMARK  642  A    between atoms: CA_1123  and  CB_1126
REMARK  643  A    between atoms: CB_1126  and  CG_1127
REMARK  644  A    between atoms: N_1130  and  CA_1131
REMARK  645  A    between atoms: CA_1131  and  C_1132
REMARK  646  A    between atoms: CA_1131  and  CB_1134
REMARK  647  A    between atoms: CB_1134  and  CG_1135
REMARK  648  A    between atoms: CG_1135  and  CD2_1136
REMARK  649  A    between atoms: CG_1135  and  CD1_1137
REMARK  650  A    between atoms: N_1138  and  CA_1139
REMARK  651  A    between atoms: CA_1139  and  C_1140
REMARK  652  A    between atoms: CA_1139  and  CB_1142
REMARK  653  A    between atoms: CB_1142  and  CG_1143
REMARK  654  A    between atoms: CG_1143  and  CD1_1144
REMARK  655  A    between atoms: CG_1143  and  CD2_1145
REMARK  656  A    between atoms: N_1146  and  CA_1147
REMARK  657  A    between atoms: CA_1147  and  C_1148
REMARK  658  A    between atoms: CA_1147  and  CB_1150
REMARK  659  A    between atoms: CB_1150  and  CG_1151
REMARK  660  A    between atoms: CG_1151  and  CD2_1152
REMARK  661  A    between atoms: CG_1151  and  CD1_1153
REMARK  662  A    between atoms: N_1154  and  CA_1155
REMARK  663  A    between atoms: CA_1155  and  C_1156
REMARK  664  A    between atoms: N_1158  and  CA_1159
REMARK  665  A    between atoms: CA_1159  and  C_1160
REMARK  666  A    between atoms: CA_1159  and  CB_1162
REMARK  667  A    between atoms: CB_1162  and  OG_1163
REMARK  668  A    between atoms: N_1164  and  CA_1165
REMARK  669  A    between atoms: CA_1165  and  C_1166
REMARK  670  A    between atoms: CA_1165  and  CB_1168
REMARK  671  A    between atoms: N_1169  and  CA_1170
REMARK  672  A    between atoms: CA_1170  and  C_1171
REMARK  673  A    between atoms: N_1173  and  CA_1174
REMARK  674  A    between atoms: CA_1174  and  C_1175
REMARK  675  A    between atoms: CA_1174  and  CB_1177
REMARK  676  A    between atoms: CB_1177  and  CG_1178
REMARK  677  A    between atoms: CG_1178  and  CD_1179
REMARK  678  A    between atoms: N_1182  and  CA_1183
REMARK  679  A    between atoms: CA_1183  and  C_1184
REMARK  680  A    between atoms: CA_1183  and  CB_1186
REMARK  681  A    between atoms: CB_1186  and  CG_1187
REMARK  682  A    between atoms: CG_1187  and  CD2_1188
REMARK  683  A    between atoms: CG_1187  and  CD1_1189
REMARK  684  A    between atoms: N_1190  and  CA_1191
REMARK  685  A    between atoms: CA_1191  and  C_1192
REMARK  686  A    between atoms: CA_1191  and  CB_1194
REMARK  687  A    between atoms: CB_1194  and  CG_1195
REMARK  688  A    between atoms: CG_1195  and  CD_1196
REMARK  689  A    between atoms: CD_1196  and  CE_1197
REMARK  690  A    between atoms: CE_1197  and  NZ_1198
REMARK  691  A    between atoms: N_1199  and  CA_1200
REMARK  692  A    between atoms: CA_1200  and  C_1201
REMARK  693  A    between atoms: CA_1200  and  CB_1203
REMARK  694  A    between atoms: CB_1203  and  CG1_1204
REMARK  695  A    between atoms: CB_1203  and  CG2_1205
REMARK  696  A    between atoms: CG1_1204  and  CD1_1206
REMARK  697  A    between atoms: N_1207  and  CA_1208
REMARK  698  A    between atoms: CA_1208  and  C_1209
REMARK  699  A    between atoms: CA_1208  and  CB_1211
REMARK  700  A    between atoms: N_1212  and  CA_1213
REMARK  701  A    between atoms: CA_1213  and  C_1214
REMARK  702  A    between atoms: CA_1213  and  CB_1216
REMARK  703  A    between atoms: CB_1216  and  CG_1217
REMARK  704  A    between atoms: N_1220  and  CA_1221
REMARK  705  A    between atoms: CA_1221  and  C_1222
REMARK  706  A    between atoms: CA_1221  and  CB_1224
REMARK  707  A    between atoms: CB_1224  and  CG_1225
REMARK  708  A    between atoms: N_1231  and  CA_1232
REMARK  709  A    between atoms: CA_1232  and  C_1233
REMARK  710  A    between atoms: N_1235  and  CA_1236
REMARK  711  A    between atoms: CA_1236  and  C_1237
REMARK  712  A    between atoms: CA_1236  and  CB_1239
REMARK  713  A    between atoms: CB_1239  and  CG_1240
REMARK  714  A    between atoms: N_1249  and  CA_1250
REMARK  715  A    between atoms: CA_1250  and  C_1251
REMARK  716  A    between atoms: CA_1250  and  CB_1253
REMARK  717  A    between atoms: CB_1253  and  OG_1254
REMARK  718  A    between atoms: N_1255  and  CA_1256
REMARK  719  A    between atoms: CA_1256  and  C_1257
REMARK  720  A    between atoms: CA_1256  and  CB_1259
REMARK  721  A    between atoms: CB_1259  and  CG2_1260
REMARK  722  A    between atoms: CB_1259  and  CG1_1261
REMARK  723  A    between atoms: N_1262  and  CA_1263
REMARK  724  A    between atoms: CA_1263  and  C_1264
REMARK  725  A    between atoms: CA_1263  and  CB_1266
REMARK  726  A    between atoms: CB_1266  and  CG_1267
REMARK  727  A    between atoms: N_1272  and  CA_1273
REMARK  728  A    between atoms: CA_1273  and  C_1274
REMARK  729  A    between atoms: CA_1273  and  CB_1276
REMARK  730  A    between atoms: CA_1278  and  C_1279
REMARK  731  A    between atoms: N_1284  and  CA_1285
REMARK  732  A    between atoms: CA_1285  and  C_1286
REMARK  733  A    between atoms: CA_1285  and  CB_1288
REMARK  734  A    between atoms: CB_1288  and  OG_1289
REMARK  735  A    between atoms: N_1290  and  CA_1291
REMARK  736  A    between atoms: CA_1291  and  C_1292
REMARK  737  A    between atoms: CA_1291  and  CB_1294
REMARK  738  A    between atoms: CB_1294  and  OG_1295
REMARK  739  A    between atoms: N_1296  and  C_1297
REMARK  740  A    between atoms: C_1297  and  C_1298
REMARK  741  A    between atoms: C_1297  and  C_1300
REMARK  742  A    between atoms: C_1300  and  C_1301
REMARK  743  A    between atoms: C_1301  and  C_1302
REMARK  744  A    between atoms: N_1303  and  CA_1304
REMARK  745  A    between atoms: CA_1304  and  C_1305
REMARK  746  A    between atoms: CA_1304  and  CB_1307
REMARK  747  A    between atoms: CB_1307  and  CG_1308
REMARK  748  A    between atoms: CG_1308  and  CD_1309
REMARK  749  A    between atoms: CD_1309  and  NE_1310
REMARK  750  A    between atoms: N_1314  and  CA_1315
REMARK  751  A    between atoms: CA_1315  and  C_1316
REMARK  752  A    between atoms: CA_1315  and  CB_1318
REMARK  753  A    between atoms: CB_1318  and  OG1_1319
REMARK  754  A    between atoms: CB_1318  and  CG2_1320
REMARK  755  A    between atoms: N_1321  and  C_1322
REMARK  756  A    between atoms: C_1322  and  C_1323
REMARK  757  A    between atoms: C_1322  and  C_1325
REMARK  758  A    between atoms: C_1325  and  C_1326
REMARK  759  A    between atoms: C_1326  and  C_1327
REMARK  760  A    between atoms: C_1326  and  C_1328
REMARK  761  A    between atoms: N_1329  and  C_1330
REMARK  762  A    between atoms: C_1330  and  C_1331
REMARK  763  A    between atoms: C_1330  and  C_1333
REMARK  764  A    between atoms: N_1334  and  C_1335
REMARK  765  A    between atoms: C_1335  and  C_1336
REMARK  766  A    between atoms: N_1338  and  C_1339
REMARK  767  A    between atoms: C_1339  and  C_1340
REMARK  768  A    between atoms: C_1339  and  C_1342
REMARK  769  A    between atoms: C_1342  and  O_1343
REMARK  770  A    between atoms: C_1342  and  C_1344
REMARK  771  A    between atoms: N_1345  and  C_1346
REMARK  772  A    between atoms: C_1346  and  C_1347
REMARK  773  A    between atoms: C_1346  and  C_1349
REMARK  774  A    between atoms: C_1349  and  C_1350
REMARK  775  A    between atoms: C_1350  and  C_1351
REMARK  776  A    between atoms: C_1350  and  C_1352
REMARK  777  A    between atoms: N_1353  and  C_1354
REMARK  778  A    between atoms: C_1354  and  C_1355
REMARK  779  A    between atoms: C_1354  and  C_1357
REMARK  780  A    between atoms: C_1357  and  C_1358
REMARK  781  A    between atoms: N_1361  and  C_1362
REMARK  782  A    between atoms: C_1362  and  C_1363
REMARK  783  A    between atoms: C_1362  and  C_1365
REMARK  784  A    between atoms: C_1365  and  C_1366
REMARK  785  A    between atoms: C_1371  and  O_1372
REMARK  786  A    between atoms: N_1373  and  C_1374
REMARK  787  A    between atoms: C_1374  and  C_1375
REMARK  788  A    between atoms: C_1374  and  C_1377
REMARK  789  A    between atoms: C_1377  and  C_1378
REMARK  790  A    between atoms: C_1378  and  C_1379
REMARK  791  A    between atoms: C_1378  and  C_1380
REMARK  792  A    between atoms: C_1382  and  C_1383
REMARK  793  A    between atoms: C_1389  and  C_1390
REMARK  794  A    between atoms: N_1395  and  C_1396
REMARK  795  A    between atoms: C_1396  and  C_1399
REMARK  796  A    between atoms: C_1399  and  C_1400
REMARK  797  A    between atoms: C_1400  and  C_1401
REMARK  798  A    between atoms: N_1405  and  C_1406
REMARK  799  A    between atoms: C_1407  and  C_1412
REMARK  800  A    between atoms: C_1408  and  O_1410
REMARK  801  A    between atoms: C_1409  and  O_1411
REMARK  802  A    between atoms: O_1410  and  O_1411
REMARK  803  A    between atoms: C_1412  and  C_1414
REMARK  804  A    between atoms: C_1413  and  C_1415
REMARK  805  A    between atoms: S_1416  and  C_1418
REMARK  806  A    between atoms: S_1417  and  C_1419
REMARK  807  A    between atoms: C_1418  and  C_1419
REMARK  808  A    between atoms: N_1420  and  CA_1421
REMARK  809  A    between atoms: CA_1421  and  C_1422
REMARK  810  A    between atoms: CA_1421  and  CB_1424
REMARK  811  A    between atoms: CB_1424  and  CG1_1425
REMARK  812  A    between atoms: CB_1424  and  CG2_1426
REMARK  813  A    between atoms: CG1_1425  and  CD1_1427
REMARK  814  A    between atoms: N_1428  and  CA_1429
REMARK  815  A    between atoms: CA_1429  and  C_1430
REMARK  816  A    between atoms: CA_1429  and  CB_1432
REMARK  817  A    between atoms: CB_1432  and  CG_1433
REMARK  818  A    between atoms: CG_1433  and  CD_1434
REMARK  819  A    between atoms: N_1437  and  CA_1438
REMARK  820  A    between atoms: CA_1438  and  C_1439
REMARK  821  A    between atoms: N_1441  and  CA_1442
REMARK  822  A    between atoms: CA_1442  and  C_1443
REMARK  823  A    between atoms: CA_1442  and  CB_1445
REMARK  824  A    between atoms: CB_1445  and  CG_1446
REMARK  825  A    between atoms: CG_1446  and  CD_1447
REMARK  826  A    between atoms: CD_1447  and  NE_1448
REMARK  827  A    between atoms: N_1452  and  C_1453
REMARK  828  A    between atoms: C_1453  and  C_1454
REMARK  829  A    between atoms: C_1453  and  C_1456
REMARK  830  A    between atoms: C_1456  and  C_1457
REMARK  831  A    between atoms: C_1457  and  S_1458
REMARK  832  A    between atoms: N_1459  and  CA_1460
REMARK  833  A    between atoms: CA_1460  and  C_1461
REMARK  834  A    between atoms: CA_1460  and  CB_1463
REMARK  835  A    between atoms: CB_1463  and  CG_1464
REMARK  836  A    between atoms: N_1469  and  CA_1470
REMARK  837  A    between atoms: CA_1470  and  C_1471
REMARK  838  A    between atoms: CA_1470  and  CB_1473
REMARK  839  A    between atoms: CB_1473  and  CG_1474
REMARK  840  A    between atoms: N_1477  and  CA_1478
REMARK  841  A    between atoms: CA_1478  and  C_1479
REMARK  842  A    between atoms: CA_1478  and  CB_1481
REMARK  843  A    between atoms: CB_1481  and  CG_1482
REMARK  844  A    between atoms: CG_1482  and  CD_1483
REMARK  845  A    between atoms: N_1486  and  CA_1487
REMARK  846  A    between atoms: CA_1487  and  C_1488
REMARK  847  A    between atoms: CA_1487  and  CB_1490
REMARK  848  A    between atoms: CB_1490  and  CG_1491
REMARK  849  A    between atoms: CG_1491  and  CD_1492
REMARK  850  A    between atoms: CD_1492  and  CE_1493
REMARK  851  A    between atoms: CE_1493  and  NZ_1494
REMARK  852  A    between atoms: N_1495  and  CA_1496
REMARK  853  A    between atoms: CA_1496  and  C_1497
REMARK  854  A    between atoms: CA_1496  and  CB_1499
REMARK  855  A    between atoms: CB_1499  and  CG2_1500
REMARK  856  A    between atoms: CB_1499  and  CG1_1501
REMARK  857  A    between atoms: N_1502  and  CA_1503
REMARK  858  A    between atoms: CA_1503  and  C_1504
REMARK  859  A    between atoms: CA_1503  and  CB_1506
REMARK  860  A    between atoms: CB_1506  and  CG_1507
REMARK  861  A    between atoms: N_1510  and  CA_1511
REMARK  862  A    between atoms: CA_1511  and  C_1512
REMARK  863  A    between atoms: CA_1511  and  CB_1514
REMARK  864  A    between atoms: CB_1514  and  CG_1515
REMARK  865  A    between atoms: CG_1515  and  CD2_1516
REMARK  866  A    between atoms: CG_1515  and  CD1_1517
REMARK  867  A    between atoms: N_1518  and  CA_1519
REMARK  868  A    between atoms: CA_1519  and  C_1520
REMARK  869  A    between atoms: CA_1519  and  CB_1522
REMARK  870  A    between atoms: CB_1522  and  CG_1523
REMARK  871  A    between atoms: N_1532  and  CA_1533
REMARK  872  A    between atoms: CA_1533  and  C_1534
REMARK  873  A    between atoms: CA_1533  and  CB_1536
REMARK  874  A    between atoms: CB_1536  and  OG_1537
REMARK  875  A    between atoms: N_1538  and  CA_1539
REMARK  876  A    between atoms: CA_1539  and  C_1540
REMARK  877  A    between atoms: CA_1539  and  CB_1542
REMARK  878  A    between atoms: CB_1542  and  CG_1543
REMARK  879  A    between atoms: CG_1543  and  CD2_1544
REMARK  880  A    between atoms: CG_1543  and  CD1_1545
REMARK  881  A    between atoms: N_1546  and  CA_1547
REMARK  882  A    between atoms: CA_1547  and  C_1548
REMARK  883  A    between atoms: N_1550  and  CA_1551
REMARK  884  A    between atoms: CA_1551  and  C_1552
REMARK  885  A    between atoms: CA_1551  and  CB_1554
REMARK  886  A    between atoms: CB_1554  and  CG2_1555
REMARK  887  A    between atoms: CB_1554  and  CG1_1556
REMARK  888  A    between atoms: N_1557  and  CA_1558
REMARK  889  A    between atoms: CA_1558  and  C_1559
REMARK  890  A    between atoms: CA_1558  and  CB_1561
REMARK  891  A    between atoms: CB_1561  and  CG_1562
REMARK  892  A    between atoms: CG_1562  and  CD1_1563
REMARK  893  A    between atoms: CG_1562  and  CD2_1564
REMARK  894  A    between atoms: N_1565  and  CA_1566
REMARK  895  A    between atoms: CA_1566  and  C_1567
REMARK  896  A    between atoms: CA_1566  and  CB_1569
REMARK  897  A    between atoms: CB_1569  and  SG_1570
REMARK  898  A    between atoms: N_1571  and  CA_1572
REMARK  899  A    between atoms: CA_1572  and  C_1573
REMARK  900  A    between atoms: CA_1572  and  CB_1575
REMARK  901  A    between atoms: CB_1575  and  CG_1576
REMARK  902  A    between atoms: CZ_1581  and  OH_1582
REMARK  903  A    between atoms: N_1583  and  CA_1584
REMARK  904  A    between atoms: CA_1584  and  C_1585
REMARK  905  A    between atoms: CA_1584  and  CB_1587
REMARK  906  A    between atoms: CB_1587  and  CG_1588
REMARK  907  A    between atoms: CG_1588  and  CD_1589
REMARK  908  A    between atoms: N_1592  and  CA_1593
REMARK  909  A    between atoms: CA_1593  and  C_1594
REMARK  910  A    between atoms: CA_1593  and  CB_1596
REMARK  911  A    between atoms: CB_1596  and  CG_1597
REMARK  912  A    between atoms: N_1603  and  CA_1604
REMARK  913  A    between atoms: CA_1604  and  C_1605
REMARK  914  A    between atoms: CA_1604  and  CB_1607
REMARK  915  A    between atoms: CB_1607  and  CG_1608
REMARK  916  A    between atoms: CG_1608  and  CD1_1609
REMARK  917  A    between atoms: CG_1608  and  CD2_1610
REMARK  918  A    between atoms: N_1611  and  CA_1612
REMARK  919  A    between atoms: CA_1612  and  C_1613
REMARK  920  A    between atoms: CA_1612  and  CB_1615
REMARK  921  A    between atoms: CB_1615  and  CG2_1616
REMARK  922  A    between atoms: CB_1615  and  CG1_1617
REMARK  923  A    between atoms: N_1618  and  CA_1619
REMARK  924  A    between atoms: CA_1619  and  C_1620
REMARK  925  A    between atoms: N_1622  and  C_1623
REMARK  926  A    between atoms: C_1623  and  C_1624
REMARK  927  A    between atoms: C_1623  and  C_1626
REMARK  928  A    between atoms: C_1626  and  C_1627
REMARK  929  A    between atoms: C_1627  and  C_1628
REMARK  930  A    between atoms: CA_1630  and  C_1631
REMARK  931  A    between atoms: CA_1637  and  C_1638
REMARK  932  A    between atoms: N_1643  and  CA_1644
REMARK  933  A    between atoms: CA_1644  and  C_1645
REMARK  934  A    between atoms: CA_1644  and  CB_1647
REMARK  935  A    between atoms: CB_1647  and  CG_1648
REMARK  936  A    between atoms: N_1654  and  CA_1655
REMARK  937  A    between atoms: CA_1655  and  C_1656
REMARK  938  A    between atoms: CA_1655  and  CB_1658
REMARK  939  A    between atoms: CB_1658  and  CG_1659
REMARK  940  A    between atoms: CG_1659  and  CD_1660
REMARK  941  A    between atoms: N_1663  and  CA_1664
REMARK  942  A    between atoms: CA_1664  and  C_1665
REMARK  943  A    between atoms: CA_1664  and  CB_1667
REMARK  944  A    between atoms: N_1668  and  CA_1669
REMARK  945  A    between atoms: CA_1669  and  C_1670
REMARK  946  A    between atoms: CA_1669  and  CB_1672
REMARK  947  A    between atoms: CB_1672  and  CG_1673
REMARK  948  A    between atoms: N_1676  and  CA_1677
REMARK  949  A    between atoms: CA_1677  and  C_1678
REMARK  950  A    between atoms: CA_1677  and  CB_1680
REMARK  951  A    between atoms: CB_1680  and  OG1_1681
REMARK  952  A    between atoms: CB_1680  and  CG2_1682
REMARK  953  A    between atoms: N_1683  and  CA_1684
REMARK  954  A    between atoms: CA_1684  and  C_1685
REMARK  955  A    between atoms: CA_1684  and  CB_1687
REMARK  956  A    between atoms: CB_1687  and  CG_1688
REMARK  957  A    between atoms: CZ_1693  and  OH_1694
REMARK  958  A    between atoms: N_1695  and  CA_1696
REMARK  959  A    between atoms: CA_1696  and  C_1697
REMARK  960  A    between atoms: CA_1696  and  CB_1699
REMARK  961  A    between atoms: CB_1699  and  CG_1700
REMARK  962  A    between atoms: CG_1700  and  CD_1701
REMARK  963  A    between atoms: N_1704  and  CA_1705
REMARK  964  A    between atoms: CA_1705  and  C_1706
REMARK  965  A    between atoms: CA_1705  and  CB_1708
REMARK  966  A    between atoms: CB_1708  and  CG_1709
REMARK  967  A    between atoms: CG_1709  and  CD_1710
REMARK  968  A    between atoms: N_1713  and  CA_1714
REMARK  969  A    between atoms: CA_1714  and  C_1715
REMARK  970  A    between atoms: CA_1714  and  CB_1717
REMARK  971  A    between atoms: CB_1717  and  OG1_1718
REMARK  972  A    between atoms: CB_1717  and  CG2_1719
REMARK  973  A    between atoms: N_1720  and  CA_1721
REMARK  974  A    between atoms: CA_1721  and  C_1722
REMARK  975  A    between atoms: CA_1721  and  CB_1724
REMARK  976  A    between atoms: CB_1724  and  CG_1725
REMARK  977  A    between atoms: CZ_1730  and  OH_1731
REMARK  978  A    between atoms: N_1732  and  CA_1733
REMARK  979  A    between atoms: CA_1733  and  C_1734
REMARK  980  A    between atoms: CA_1733  and  CB_1736
REMARK  981  A    between atoms: CB_1736  and  SG_1737
REMARK  982  A    between atoms: N_1738  and  C_1739
REMARK  983  A    between atoms: C_1739  and  C_1740
REMARK  984  A    between atoms: C_1739  and  C_1742
REMARK  985  A    between atoms: C_1742  and  C_1743
REMARK  986  A    between atoms: C_1743  and  C_1744
REMARK  987  A    between atoms: C_1744  and  N_1745
REMARK  988  A    between atoms: N_1746  and  CA_1747
REMARK  989  A    between atoms: CA_1747  and  C_1748
REMARK  990  A    between atoms: CA_1747  and  CB_1750
REMARK  991  A    between atoms: CB_1750  and  CG1_1751
REMARK  992  A    between atoms: CB_1750  and  CG2_1752
REMARK  993  A    between atoms: CG1_1751  and  CD1_1753
REMARK  994  A    between atoms: N_1754  and  C_1755
REMARK  995  A    between atoms: C_1755  and  C_1756
REMARK  996  A    between atoms: C_1755  and  C_1758
REMARK  997  A    between atoms: C_1758  and  O_1759
REMARK  998  A    between atoms: N_1760  and  C_1761
REMARK  999  A    between atoms: C_1761  and  C_1762
REMARK  1000  A    between atoms: C_1761  and  C_1764
REMARK  1001  A    between atoms: C_1764  and  C_1765
REMARK  1002  A    between atoms: C_1765  and  C_1766
REMARK  1003  A    between atoms: C_1766  and  N_1767
REMARK  1004  A    between atoms: N_1771  and  C_1772
REMARK  1005  A    between atoms: C_1772  and  C_1773
REMARK  1006  A    between atoms: C_1772  and  C_1775
REMARK  1007  A    between atoms: C_1775  and  C_1776
REMARK  1008  A    between atoms: C_1775  and  C_1777
REMARK  1009  A    between atoms: N_1778  and  C_1779
REMARK  1010  A    between atoms: C_1779  and  C_1780
REMARK  1011  A    between atoms: C_1779  and  C_1782
REMARK  1012  A    between atoms: C_1782  and  C_1783
REMARK  1013  A    between atoms: C_1783  and  C_1784
REMARK  1014  A    between atoms: N_1787  and  C_1788
REMARK  1015  A    between atoms: C_1788  and  C_1789
REMARK  1016  A    between atoms: C_1788  and  C_1791
REMARK  1017  A    between atoms: C_1791  and  C_1792
REMARK  1018  A    between atoms: N_1798  and  C_1799
REMARK  1019  A    between atoms: C_1799  and  C_1800
REMARK  1020  A    between atoms: C_1799  and  C_1802
REMARK  1021  A    between atoms: C_1802  and  O_1803
REMARK  1022  A    between atoms: C_1802  and  C_1804
REMARK  1023  A    between atoms: N_1805  and  C_1806
REMARK  1024  A    between atoms: C_1806  and  C_1807
REMARK  1025  A    between atoms: C_1806  and  C_1809
REMARK  1026  A    between atoms: C_1809  and  C_1810
REMARK  1027  A    between atoms: C_1817  and  C_1818
REMARK  1028  A    between atoms: N_1823  and  C_1824
REMARK  1029  A    between atoms: C_1824  and  C_1825
REMARK  1030  A    between atoms: C_1824  and  C_1827
REMARK  1031  A    between atoms: C_1827  and  C_1828
REMARK  1032  A    between atoms: N_1831  and  C_1832
REMARK  1033  A    between atoms: C_1832  and  C_1833
REMARK  1034  A    between atoms: C_1832  and  C_1835
REMARK  1035  A    between atoms: C_1835  and  C_1836
REMARK  1036  A    between atoms: N_1842  and  C_1843
REMARK  1037  A    between atoms: C_1843  and  C_1844
REMARK  1038  A    between atoms: C_1843  and  C_1846
REMARK  1039  A    between atoms: C_1846  and  C_1847
REMARK  1040  A    between atoms: C_1846  and  C_1848
REMARK  1041  A    between atoms: N_1849  and  C_1850
REMARK  1042  A    between atoms: C_1850  and  C_1851
REMARK  1043  A    between atoms: C_1850  and  C_1853
REMARK  1044  A    between atoms: C_1853  and  O_1854
REMARK  1045  A    between atoms: C_1853  and  C_1855
REMARK  1046  A    between atoms: N_1856  and  C_1857
REMARK  1047  A    between atoms: C_1858  and  C_1859
REMARK  1048  A    between atoms: C_1858  and  C_1861
REMARK  1049  A    between atoms: C_1862  and  C_1863
REMARK  1050  A    between atoms: C_1862  and  C_1864
REMARK  1051  A    between atoms: C_1863  and  C_1865
REMARK  1052  A    between atoms: N_1871  and  C_1872
REMARK  1053  A    between atoms: C_1872  and  C_1873
REMARK  1054  A    between atoms: N_1875  and  CA_1876
REMARK  1055  A    between atoms: CA_1876  and  C_1877
REMARK  1056  A    between atoms: CA_1876  and  CB_1879
REMARK  1057  A    between atoms: N_1880  and  CA_1881
REMARK  1058  A    between atoms: CA_1881  and  C_1882
REMARK  1059  A    between atoms: CA_1881  and  CB_1884
REMARK  1060  A    between atoms: CB_1884  and  CG_1885
REMARK  1061  A    between atoms: CG_1885  and  CD_1886
REMARK  1062  A    between atoms: CD_1886  and  NE_1887
REMARK  1063  A    between atoms: N_1891  and  CA_1892
REMARK  1064  A    between atoms: CA_1892  and  C_1893
REMARK  1065  A    between atoms: CA_1892  and  CB_1895
REMARK  1066  A    between atoms: CB_1895  and  CG_1896
REMARK  1067  A    between atoms: N_1899  and  CA_1900
REMARK  1068  A    between atoms: CA_1900  and  C_1901
REMARK  1069  A    between atoms: CA_1900  and  CB_1903
REMARK  1070  A    between atoms: CB_1903  and  CG_1904
REMARK  1071  A    between atoms: CG_1904  and  CD1_1905
REMARK  1072  A    between atoms: CG_1904  and  CD2_1906
REMARK  1073  A    between atoms: N_1907  and  CA_1908
REMARK  1074  A    between atoms: CA_1908  and  C_1909
REMARK  1075  A    between atoms: CA_1908  and  CB_1911
REMARK  1076  A    between atoms: CB_1911  and  CG1_1912
REMARK  1077  A    between atoms: CB_1911  and  CG2_1913
REMARK  1078  A    between atoms: CG1_1912  and  CD1_1914
REMARK  1079  A    between atoms: N_1915  and  CA_1916
REMARK  1080  A    between atoms: CA_1916  and  C_1917
REMARK  1081  A    between atoms: CA_1916  and  CB_1919
REMARK  1082  A    between atoms: CB_1919  and  OG_1920
REMARK  1083  A    between atoms: N_1921  and  CA_1922
REMARK  1084  A    between atoms: CA_1922  and  C_1923
REMARK  1085  A    between atoms: CA_1922  and  CB_1925
REMARK  1086  A    between atoms: CB_1925  and  CG_1926
REMARK  1087  A    between atoms: CG_1926  and  CD_1927
REMARK  1088  A    between atoms: CD_1927  and  NE_1928
REMARK  1089  A    between atoms: N_1932  and  CA_1933
REMARK  1090  A    between atoms: CA_1933  and  C_1934
REMARK  1091  A    between atoms: CA_1933  and  CB_1936
REMARK  1092  A    between atoms: CB_1936  and  CG_1937
REMARK  1093  A    between atoms: CG_1937  and  CD2_1938
REMARK  1094  A    between atoms: CG_1937  and  CD1_1939
REMARK  1095  A    between atoms: N_1940  and  CA_1941
REMARK  1096  A    between atoms: CA_1941  and  C_1942
REMARK  1097  A    between atoms: CA_1941  and  CB_1944
REMARK  1098  A    between atoms: CB_1944  and  CG_1945
REMARK  1099  A    between atoms: CG_1945  and  CD2_1946
REMARK  1100  A    between atoms: CG_1945  and  CD1_1947
REMARK  1101  A    between atoms: N_1948  and  CA_1949
REMARK  1102  A    between atoms: CA_1949  and  C_1950
REMARK  1103  A    between atoms: CA_1949  and  CB_1952
REMARK  1104  A    between atoms: CB_1952  and  CG_1953
REMARK  1105  A    between atoms: CG_1953  and  CD_1954
REMARK  1106  A    between atoms: CD_1954  and  CE_1955
REMARK  1107  A    between atoms: CE_1955  and  NZ_1956
REMARK  1108  A    between atoms: N_1957  and  CA_1958
REMARK  1109  A    between atoms: CA_1958  and  C_1959
REMARK  1110  A    between atoms: CA_1958  and  CB_1961
REMARK  1111  A    between atoms: CB_1961  and  CG_1962
REMARK  1112  A    between atoms: N_1967  and  CA_1968
REMARK  1113  A    between atoms: CA_1968  and  C_1969
REMARK  1114  A    between atoms: CA_1968  and  CB_1971
REMARK  1115  A    between atoms: CB_1971  and  CG_1972
REMARK  1116  A    between atoms: CA_1976  and  C_1977
REMARK  1117  A    between atoms: N_1982  and  C_1983
REMARK  1118  A    between atoms: C_1983  and  C_1984
REMARK  1119  A    between atoms: C_1983  and  C_1986
REMARK  1120  A    between atoms: C_1986  and  O_1987
REMARK  1121  A    between atoms: N_1988  and  C_1989
REMARK  1122  A    between atoms: C_1989  and  C_1990
REMARK  1123  A    between atoms: C_1989  and  C_1992
REMARK  1124  A    between atoms: C_1992  and  C_1993
REMARK  1125  A    between atoms: C_1993  and  C_1994
REMARK  1126  A    between atoms: N_1997  and  C_1998
REMARK  1127  A    between atoms: C_1998  and  C_1999
REMARK  1128  A    between atoms: C_1998  and  C_2001
REMARK  1129  A    between atoms: C_2001  and  C_2002
REMARK  1130  A    between atoms: C_2002  and  C_2003
REMARK  1131  A    between atoms: C_2003  and  N_2004
REMARK  1132  A    between atoms: C_2009  and  C_2010
REMARK  1133  A    between atoms: N_2015  and  C_2017
REMARK  1134  A    between atoms: C_2016  and  C_2018
REMARK  1135  A    between atoms: C_2016  and  C_2021
REMARK  1136  A    between atoms: C_2021  and  C_2022
REMARK  1137  A    between atoms: C_2022  and  C_2023
REMARK  1138  A    between atoms: C_2023  and  S_2024
REMARK  1139  A    between atoms: C_2023  and  S_2025
REMARK  1140  A    between atoms: S_2024  and  C_2026
REMARK  1141  A    between atoms: S_2025  and  C_2027
REMARK  1142  A    between atoms: N_2028  and  CA_2029
REMARK  1143  A    between atoms: CA_2029  and  C_2030
REMARK  1144  A    between atoms: CA_2029  and  CB_2032
REMARK  1145  A    between atoms: CB_2032  and  CG_2033
REMARK  1146  A    between atoms: CG_2033  and  CD1_2034
REMARK  1147  A    between atoms: CG_2033  and  CD2_2035
REMARK  1148  A    between atoms: N_2036  and  CA_2037
REMARK  1149  A    between atoms: CA_2037  and  C_2038
REMARK  1150  A    between atoms: CA_2037  and  CB_2040
REMARK  1151  A    between atoms: N_2041  and  CA_2042
REMARK  1152  A    between atoms: CA_2042  and  C_2043
REMARK  1153  A    between atoms: CA_2042  and  CB_2045
REMARK  1154  A    between atoms: CB_2045  and  CG_2046
REMARK  1155  A    between atoms: CG_2046  and  CD_2047
REMARK  1156  A    between atoms: N_2050  and  CA_2051
REMARK  1157  A    between atoms: CA_2051  and  C_2052
REMARK  1158  A    between atoms: CA_2051  and  CB_2054
REMARK  1159  A    between atoms: CB_2054  and  CG2_2055
REMARK  1160  A    between atoms: CB_2054  and  CG1_2056
REMARK  1161  A    between atoms: N_2057  and  CA_2058
REMARK  1162  A    between atoms: CA_2058  and  C_2059
REMARK  1163  A    between atoms: CA_2058  and  CB_2061
REMARK  1164  A    between atoms: CB_2061  and  CG_2062
REMARK  1165  A    between atoms: CG_2062  and  CD1_2063
REMARK  1166  A    between atoms: CG_2062  and  CD2_2064
REMARK  1167  A    between atoms: N_2065  and  CA_2066
REMARK  1168  A    between atoms: CA_2066  and  C_2067
REMARK  1169  A    between atoms: CA_2066  and  CB_2069
REMARK  1170  A    between atoms: CB_2069  and  CG_2070
REMARK  1171  A    between atoms: CG_2070  and  CD_2071
REMARK  1172  A    between atoms: N_2074  and  CA_2075
REMARK  1173  A    between atoms: CA_2075  and  C_2076
REMARK  1174  A    between atoms: CA_2075  and  CB_2078
REMARK  1175  A    between atoms: CB_2078  and  CG_2079
REMARK  1176  A    between atoms: CA_2085  and  C_2086
REMARK  1177  A    between atoms: N_2091  and  CA_2092
REMARK  1178  A    between atoms: CA_2092  and  C_2093
REMARK  1179  A    between atoms: CA_2092  and  CB_2095
REMARK  1180  A    between atoms: CB_2095  and  CG_2096
REMARK  1181  A    between atoms: N_2105  and  CA_2106
REMARK  1182  A    between atoms: CA_2106  and  C_2107
REMARK  1183  A    between atoms: CA_2106  and  CB_2109
REMARK  1184  A    between atoms: CB_2109  and  CG1_2110
REMARK  1185  A    between atoms: CB_2109  and  CG2_2111
REMARK  1186  A    between atoms: CG1_2110  and  CD1_2112
REMARK  1187  A    between atoms: N_2113  and  CA_2114
REMARK  1188  A    between atoms: CA_2114  and  C_2115
REMARK  1189  A    between atoms: CA_2114  and  CB_2117
REMARK  1190  A    between atoms: CB_2117  and  OG1_2118
REMARK  1191  A    between atoms: CB_2117  and  CG2_2119
REMARK  1192  A    between atoms: N_2120  and  CA_2121
REMARK  1193  A    between atoms: CA_2121  and  C_2122
REMARK  1194  A    between atoms: CA_2121  and  CB_2124
REMARK  1195  A    between atoms: N_2125  and  CA_2126
REMARK  1196  A    between atoms: CA_2126  and  C_2127
REMARK  1197  A    between atoms: CA_2126  and  CB_2129
REMARK  1198  A    between atoms: CB_2129  and  CG_2130
REMARK  1199  A    between atoms: N_2133  and  CA_2134
REMARK  1200  A    between atoms: CA_2134  and  C_2135
REMARK  1201  A    between atoms: CA_2134  and  CB_2137
REMARK  1202  A    between atoms: CB_2137  and  OG_2138
REMARK  1203  A    between atoms: N_2139  and  CA_2140
REMARK  1204  A    between atoms: CA_2140  and  C_2141
REMARK  1205  A    between atoms: CA_2140  and  CB_2143
REMARK  1206  A    between atoms: CB_2143  and  OG_2144
REMARK  1207  A    between atoms: N_2145  and  C_2146
REMARK  1208  A    between atoms: C_2146  and  C_2147
REMARK  1209  A    between atoms: C_2146  and  C_2149
REMARK  1210  A    between atoms: C_2149  and  C_2150
REMARK  1211  A    between atoms: N_2151  and  CA_2152
REMARK  1212  A    between atoms: CA_2152  and  C_2153
REMARK  1213  A    between atoms: CA_2152  and  CB_2155
REMARK  1214  A    between atoms: CB_2155  and  OG_2156
REMARK  1215  A    between atoms: N_2157  and  CA_2158
REMARK  1216  A    between atoms: CA_2158  and  C_2159
REMARK  1217  A    between atoms: CA_2158  and  CB_2161
REMARK  1218  A    between atoms: CB_2161  and  CG_2162
REMARK  1219  A    between atoms: CG_2162  and  CD_2163
REMARK  1220  A    between atoms: CA_2167  and  C_2168
REMARK  1221  A    between atoms: CA_2174  and  C_2175
REMARK  1222  A    between atoms: N_2180  and  CA_2181
REMARK  1223  A    between atoms: CA_2181  and  C_2182
REMARK  1224  A    between atoms: CA_2181  and  CB_2184
REMARK  1225  A    between atoms: CB_2184  and  OG_2185
REMARK  1226  A    between atoms: N_2186  and  CA_2187
REMARK  1227  A    between atoms: CA_2187  and  C_2188
REMARK  1228  A    between atoms: CA_2187  and  CB_2190
REMARK  1229  A    between atoms: CB_2190  and  CG_2191
REMARK  1230  A    between atoms: N_2200  and  CA_2201
REMARK  1231  A    between atoms: CA_2201  and  C_2202
REMARK  1232  A    between atoms: CA_2201  and  CB_2204
REMARK  1233  A    between atoms: CB_2204  and  CG2_2205
REMARK  1234  A    between atoms: CB_2204  and  CG1_2206
REMARK  1235  A    between atoms: N_2207  and  CA_2208
REMARK  1236  A    between atoms: CA_2208  and  C_2209
REMARK  1237  A    between atoms: CA_2208  and  CB_2211
REMARK  1238  A    between atoms: CB_2211  and  OG1_2212
REMARK  1239  A    between atoms: CB_2211  and  CG2_2213
REMARK  1240  A    between atoms: N_2214  and  CA_2215
REMARK  1241  A    between atoms: CA_2215  and  C_2216
REMARK  1242  A    between atoms: CA_2215  and  CB_2218
REMARK  1243  A    between atoms: CB_2218  and  CG_2219
REMARK  1244  A    between atoms: CG_2219  and  CD_2220
REMARK  1245  A    between atoms: N_2223  and  CA_2224
REMARK  1246  A    between atoms: CA_2224  and  C_2225
REMARK  1247  A    between atoms: CA_2224  and  CB_2227
REMARK  1248  A    between atoms: CB_2227  and  CG_2228
REMARK  1249  A    between atoms: CG_2228  and  SD_2229
REMARK  1250  A    between atoms: SD_2229  and  CE_2230
REMARK  1251  A    between atoms: N_2231  and  CA_2232
REMARK  1252  A    between atoms: CA_2232  and  C_2233
REMARK  1253  A    between atoms: CA_2232  and  CB_2235
REMARK  1254  A    between atoms: CB_2235  and  CG_2236
REMARK  1255  A    between atoms: CG_2236  and  CD1_2237
REMARK  1256  A    between atoms: CG_2236  and  CD2_2238
REMARK  1257  A    between atoms: N_2239  and  CA_2240
REMARK  1258  A    between atoms: CA_2240  and  C_2241
REMARK  1259  A    between atoms: CA_2240  and  CB_2243
REMARK  1260  A    between atoms: CB_2243  and  CG_2244
REMARK  1261  A    between atoms: CG_2244  and  CD1_2245
REMARK  1262  A    between atoms: CG_2244  and  CD2_2246
REMARK  1263  A    between atoms: N_2247  and  CA_2248
REMARK  1264  A    between atoms: CA_2248  and  C_2249
REMARK  1265  A    between atoms: CA_2248  and  CB_2251
REMARK  1266  A    between atoms: CB_2251  and  CG_2252
REMARK  1267  A    between atoms: CG_2252  and  CD_2253
REMARK  1268  A    between atoms: N_2256  and  CA_2257
REMARK  1269  A    between atoms: CA_2257  and  C_2258
REMARK  1270  A    between atoms: CA_2257  and  CB_2260
REMARK  1271  A    between atoms: CB_2260  and  CG_2261
REMARK  1272  A    between atoms: CG_2261  and  CD_2262
REMARK  1273  A    between atoms: CD_2262  and  CE_2263
REMARK  1274  A    between atoms: CE_2263  and  NZ_2264
REMARK  1275  A    between atoms: N_2265  and  C_2266
REMARK  1276  A    between atoms: C_2266  and  C_2267
REMARK  1277  A    between atoms: C_2266  and  C_2269
REMARK  1278  A    between atoms: C_2269  and  C_2270
REMARK  1279  A    between atoms: N_2271  and  CA_2272
REMARK  1280  A    between atoms: CA_2272  and  C_2273
REMARK  1281  A    between atoms: CA_2272  and  CB_2275
REMARK  1282  A    between atoms: CB_2275  and  CG_2276
REMARK  1283  A    between atoms: CG_2276  and  CD2_2277
REMARK  1284  A    between atoms: CG_2276  and  CD1_2278
REMARK  1285  A    between atoms: N_2279  and  CA_2280
REMARK  1286  A    between atoms: CA_2280  and  C_2281
REMARK  1287  A    between atoms: CA_2280  and  CB_2283
REMARK  1288  A    between atoms: CB_2283  and  CG_2284
REMARK  1289  A    between atoms: N_2293  and  CA_2294
REMARK  1290  A    between atoms: CA_2294  and  C_2295
REMARK                            x       y       z     vdW  Elec       q    Type
REMARK                         _______ _______ _______ _____ _____    ______ ____
ROOT
ATOM      1  C   UNL     3     -42.449  35.436   0.760  0.00  0.00    +0.165 C 
ENDROOT
BRANCH   1   2
ATOM      2  C   UNL     3     -43.071  34.413   1.707  0.00  0.00    +0.234 C 
ATOM      3  O   UNL     3     -42.607  33.267   1.791  0.00  0.00    -0.274 OA
ATOM      4  N   UNL     3     -44.094  34.819   2.458  0.00  0.00    -0.302 N 
ATOM      5  H   UNL     3     -44.298  35.782   2.445  0.00  0.00    +0.150 HD
BRANCH   4   6
ATOM      6  C   UNL     3     -44.946  33.976   3.301  0.00  0.00    +0.159 C 
BRANCH   6   7
ATOM      7  C   UNL     3     -44.288  33.518   4.608  0.00  0.00    +0.233 C 
ATOM      8  O   UNL     3     -44.920  32.762   5.363  0.00  0.00    -0.274 OA
ATOM      9  N   UNL     3     -43.063  33.940   4.920  0.00  0.00    -0.313 N 
ATOM     10  H   UNL     3     -42.575  34.535   4.306  0.00  0.00    +0.149 HD
BRANCH   9  11
ATOM     11  C   UNL     3     -42.448  33.518   6.172  0.00  0.00    +0.110 C 
BRANCH  11  12
ATOM     12  C   UNL     3     -41.731  32.175   5.973  0.00  0.00    +0.070 C 
BRANCH  12  13
ATOM     13  C   UNL     3     -41.356  31.464   7.290  0.00  0.00    +0.043 C 
ATOM     14  O   UNL     3     -42.103  31.581   8.277  0.00  0.00    -0.550 OA
ATOM     15  O   UNL     3     -40.311  30.745   7.314  0.00  0.00    -0.550 OA
ENDBRANCH  12  13
ENDBRANCH  11  12
ENDBRANCH   9  11
ENDBRANCH   6   7
BRANCH   6  16
ATOM     16  C   UNL     3     -45.458  32.739   2.539  0.00  0.00    +0.035 C 
BRANCH  16  17
ATOM     17  C   UNL     3     -46.148  33.123   1.234  0.00  0.00    +0.039 C 
BRANCH  17  18
ATOM     18  C   UNL     3     -47.033  32.023   0.709  0.00  0.00    +0.196 C 
BRANCH  18  19
ATOM     19  N   UNL     3     -46.198  30.901   0.305  0.00  0.00    -0.279 N 
ATOM     20  C   UNL     3     -46.616  29.885  -0.428  0.00  0.00    +0.341 C 
ATOM     21  N   UNL     3     -47.874  29.804  -0.840  0.00  0.00    -0.292 N 
ATOM     22  N   UNL     3     -45.752  28.929  -0.759  0.00  0.00    -0.292 N 
ATOM     23  H   UNL     3     -45.258  30.899   0.598  0.00  0.00    +0.258 HD
ATOM     24  H   UNL     3     -48.165  29.038  -1.386  0.00  0.00    +0.255 HD
ATOM     25  H   UNL     3     -48.517  30.510  -0.600  0.00  0.00    +0.255 HD
ATOM     26  H   UNL     3     -46.048  28.165  -1.305  0.00  0.00    +0.255 HD
ATOM     27  H   UNL     3     -44.816  28.985  -0.458  0.00  0.00    +0.255 HD
ENDBRANCH  18  19
ENDBRANCH  17  18
ENDBRANCH  16  17
ENDBRANCH   6  16
ENDBRANCH   4   6
ENDBRANCH   1   2
BRANCH   1  30
ATOM     28  C   UNL     3     -43.864  35.431  -1.207  0.00  0.00    +0.234 C 
ATOM     29  O   UNL     3     -43.524  34.277  -1.484  0.00  0.00    -0.274 OA
ATOM     30  N   UNL     3     -43.456  36.068  -0.104  0.00  0.00    -0.302 N 
ATOM     31  H   UNL     3     -43.826  36.951   0.127  0.00  0.00    +0.150 HD
BRANCH  28  32
ATOM     32  C   UNL     3     -44.831  36.165  -2.118  0.00  0.00    +0.162 C 
BRANCH  32  35
ATOM     33  C   UNL     3     -43.880  37.114  -4.186  0.00  0.00    +0.234 C 
ATOM     34  O   UNL     3     -43.980  38.280  -3.791  0.00  0.00    -0.274 OA
ATOM     35  N   UNL     3     -44.321  36.071  -3.483  0.00  0.00    -0.302 N 
ATOM     36  H   UNL     3     -44.302  35.184  -3.910  0.00  0.00    +0.150 HD
BRANCH  33  37
ATOM     37  C   UNL     3     -43.226  36.809  -5.525  0.00  0.00    +0.161 C 
BRANCH  37  40
ATOM     38  C   UNL     3     -44.698  37.524  -7.316  0.00  0.00    +0.213 C 
ATOM     39  O   UNL     3     -45.189  36.397  -7.416  0.00  0.00    -0.276 OA
ATOM     40  N   UNL     3     -43.711  37.783  -6.488  0.00  0.00    -0.304 N 
ATOM     41  H   UNL     3     -43.284  38.670  -6.521  0.00  0.00    +0.149 HD
BRANCH  38  42
ATOM     42  C   UNL     3     -45.214  38.689  -8.154  0.00  0.00    +0.092 C 
ATOM     43  C   UNL     3     -45.918  38.177  -9.413  0.00  0.00    +0.013 C 
ENDBRANCH  38  42
ENDBRANCH  37  40
BRANCH  37  44
ATOM     44  C   UNL     3     -41.689  36.868  -5.419  0.00  0.00    +0.012 C 
ATOM     45  C   UNL     3     -41.214  36.190  -4.133  0.00  0.00    +0.009 C 
ATOM     46  C   UNL     3     -41.038  36.250  -6.656  0.00  0.00    +0.009 C 
ENDBRANCH  37  44
ENDBRANCH  33  37
ENDBRANCH  32  35
BRANCH  32  47
ATOM     47  C   UNL     3     -46.236  35.546  -2.005  0.00  0.00    +0.015 C 
ATOM     48  C   UNL     3     -46.884  35.885  -0.657  0.00  0.00    +0.010 C 
BRANCH  47  49
ATOM     49  C   UNL     3     -47.119  35.960  -3.197  0.00  0.00    +0.002 C 
ATOM     50  C   UNL     3     -48.487  35.247  -3.202  0.00  0.00    +0.004 C 
ENDBRANCH  47  49
ENDBRANCH  32  47
ENDBRANCH  28  32
ENDBRANCH   1  30
BRANCH   1  51
ATOM     51  C   UNL     3     -41.679  36.491   1.559  0.00  0.00    +0.086 C 
BRANCH  51  52
ATOM     52  C   UNL     3     -40.553  35.923   2.377  0.00  0.00    +0.038 A 
ATOM     53  N   UNL     3     -40.761  35.266   3.568  0.00  0.00    -0.348 N 
ATOM     54  C   UNL     3     -39.210  35.897   2.164  0.00  0.00    +0.133 A 
ATOM     55  C   UNL     3     -39.600  34.864   4.062  0.00  0.00    +0.196 A 
ATOM     56  N   UNL     3     -38.638  35.253   3.241  0.00  0.00    -0.244 NA
ATOM     57  H   UNL     3     -41.639  35.118   3.989  0.00  0.00    +0.166 HD
ENDBRANCH  51  52
ENDBRANCH   1  51
TORSDOF 21
REMARK  Name = /Users/wangyang/Desktop/Breast_cancer_brain_metastasis/wang_Gene/AIDD/15_Protein_ligand_docking/data_7ztl/protein.pdb
REMARK  1290 active torsions:
REMARK  status: ('A' for Active; 'I' for Inactive)
REMARK    1  A    between atoms: N_1  and  CA_2
REMARK    2  A    between atoms: CA_2  and  C_3
REMARK    3  A    between atoms: N_5  and  CA_6
REMARK    4  A    between atoms: CA_6  and  C_7
REMARK    5  A    between atoms: CA_6  and  CB_9
REMARK    6  A    between atoms: N_10  and  CA_11
REMARK    7  A    between atoms: CA_11  and  C_12
REMARK    8  A    between atoms: CA_11  and  CB_14
REMARK    9  A    between atoms: CB_14  and  CG_15
REMARK   10  A    between atoms: N_24  and  CA_25
REMARK   11  A    between atoms: CA_25  and  C_26
REMARK   12  A    between atoms: CA_25  and  CB_28
REMARK   13  A    between atoms: N_29  and  CA_30
REMARK   14  A    between atoms: CA_30  and  C_31
REMARK   15  A    between atoms: CA_30  and  CB_33
REMARK   16  A    between atoms: CB_33  and  CG_34
REMARK   17  A    between atoms: CG_34  and  CD1_35
REMARK   18  A    between atoms: CG_34  and  CD2_36
REMARK   19  A    between atoms: N_37  and  CA_38
REMARK   20  A    between atoms: CA_38  and  C_39
REMARK   21  A    between atoms: CA_38  and  CB_41
REMARK   22  A    between atoms: CB_41  and  CG_42
REMARK   23  A    between atoms: CG_42  and  CD_43
REMARK   24  A    between atoms: N_46  and  CA_47
REMARK   25  A    between atoms: CA_47  and  C_48
REMARK   26  A    between atoms: CA_47  and  CB_50
REMARK   27  A    between atoms: CB_50  and  CG_51
REMARK   28  A    between atoms: N_54  and  CA_55
REMARK   29  A    between atoms: CA_55  and  C_56
REMARK   30  A    between atoms: CA_55  and  CB_58
REMARK   31  A    between atoms: CB_58  and  CG_59
REMARK   32  A    between atoms: N_65  and  CA_66
REMARK   33  A    between atoms: CA_66  and  C_67
REMARK   34  A    between atoms: CA_66  and  CB_69
REMARK   35  A    between atoms: CB_69  and  CG_70
REMARK   36  A    between atoms: CG_70  and  CD_71
REMARK   37  A    between atoms: N_74  and  CA_75
REMARK   38  A    between atoms: CA_75  and  C_76
REMARK   39  A    between atoms: CA_75  and  CB_78
REMARK   40  A    between atoms: CB_78  and  CG1_79
REMARK   41  A    between atoms: CB_78  and  CG2_80
REMARK   42  A    between atoms: CG1_79  and  CD1_81
REMARK   43  A    between atoms: N_82  and  CA_83
REMARK   44  A    between atoms: CA_83  and  C_84
REMARK   45  A    between atoms: N_86  and  CA_87
REMARK   46  A    between atoms: CA_87  and  C_88
REMARK   47  A    between atoms: CA_87  and  CB_90
REMARK   48  A    between atoms: CB_90  and  CG_91
REMARK   49  A    between atoms: CG_91  and  CD_92
REMARK   50  A    between atoms: CD_92  and  NE_93
REMARK   51  A    between atoms: CA_98  and  C_99
REMARK   52  A    between atoms: N_104  and  CA_105
REMARK   53  A    between atoms: CA_105  and  C_106
REMARK   54  A    between atoms: CA_105  and  CB_108
REMARK   55  A    between atoms: CB_108  and  CG_109
REMARK   56  A    between atoms: CG_109  and  CD1_110
REMARK   57  A    between atoms: CG_109  and  CD2_111
REMARK   58  A    between atoms: N_112  and  CA_113
REMARK   59  A    between atoms: CA_113  and  C_114
REMARK   60  A    between atoms: N_116  and  C_117
REMARK   61  A    between atoms: C_117  and  C_118
REMARK   62  A    between atoms: C_117  and  C_120
REMARK   63  A    between atoms: C_120  and  C_121
REMARK   64  A    between atoms: C_121  and  C_122
REMARK   65  A    between atoms: N_123  and  CA_124
REMARK   66  A    between atoms: CA_124  and  C_125
REMARK   67  A    between atoms: N_127  and  CA_128
REMARK   68  A    between atoms: CA_128  and  C_129
REMARK   69  A    between atoms: CA_128  and  CB_131
REMARK   70  A    between atoms: CB_131  and  CG_132
REMARK   71  A    between atoms: CG_132  and  CD_133
REMARK   72  A    between atoms: CD_133  and  CE_134
REMARK   73  A    between atoms: CE_134  and  NZ_135
REMARK   74  A    between atoms: N_136  and  CA_137
REMARK   75  A    between atoms: CA_137  and  C_138
REMARK   76  A    between atoms: CA_137  and  CB_140
REMARK   77  A    between atoms: CB_140  and  CG_141
REMARK   78  A    between atoms: N_147  and  CA_148
REMARK   79  A    between atoms: CA_148  and  C_149
REMARK   80  A    between atoms: N_151  and  CA_152
REMARK   81  A    between atoms: CA_152  and  C_153
REMARK   82  A    between atoms: CA_152  and  CB_155
REMARK   83  A    between atoms: CB_155  and  CG_156
REMARK   84  A    between atoms: N_159  and  CA_160
REMARK   85  A    between atoms: CA_160  and  C_161
REMARK   86  A    between atoms: CA_160  and  CB_163
REMARK   87  A    between atoms: CB_163  and  CG1_164
REMARK   88  A    between atoms: CB_163  and  CG2_165
REMARK   89  A    between atoms: N_166  and  CA_167
REMARK   90  A    between atoms: CA_167  and  C_168
REMARK   91  A    between atoms: CA_167  and  CB_170
REMARK   92  A    between atoms: CB_170  and  CG_171
REMARK   93  A    between atoms: CZ_176  and  OH_177
REMARK   94  A    between atoms: N_178  and  CA_179
REMARK   95  A    between atoms: CA_179  and  C_180
REMARK   96  A    between atoms: CA_179  and  CB_182
REMARK   97  A    between atoms: CB_182  and  CG_183
REMARK   98  A    between atoms: CG_183  and  CD1_184
REMARK   99  A    between atoms: CG_183  and  CD2_185
REMARK  100  A    between atoms: N_186  and  CA_187
REMARK  101  A    between atoms: CA_187  and  C_188
REMARK  102  A    between atoms: CA_187  and  CB_190
REMARK  103  A    between atoms: N_191  and  CA_192
REMARK  104  A    between atoms: CA_192  and  C_193
REMARK  105  A    between atoms: CA_192  and  CB_195
REMARK  106  A    between atoms: CB_195  and  CG_196
REMARK  107  A    between atoms: CG_196  and  CD_197
REMARK  108  A    between atoms: CD_197  and  NE_198
REMARK  109  A    between atoms: N_202  and  CA_203
REMARK  110  A    between atoms: CA_203  and  C_204
REMARK  111  A    between atoms: CA_203  and  CB_206
REMARK  112  A    between atoms: CB_206  and  CG_207
REMARK  113  A    between atoms: CG_207  and  CD_208
REMARK  114  A    between atoms: N_211  and  CA_212
REMARK  115  A    between atoms: CA_212  and  C_213
REMARK  116  A    between atoms: CA_212  and  CB_215
REMARK  117  A    between atoms: CB_215  and  CG_216
REMARK  118  A    between atoms: CG_216  and  CD_217
REMARK  119  A    between atoms: CD_217  and  CE_218
REMARK  120  A    between atoms: CE_218  and  NZ_219
REMARK  121  A    between atoms: N_220  and  CA_221
REMARK  122  A    between atoms: CA_221  and  C_222
REMARK  123  A    between atoms: CA_221  and  CB_224
REMARK  124  A    between atoms: N_225  and  CA_226
REMARK  125  A    between atoms: CA_226  and  C_227
REMARK  126  A    between atoms: CA_226  and  CB_229
REMARK  127  A    between atoms: CB_229  and  OG_230
REMARK  128  A    between atoms: N_231  and  CA_232
REMARK  129  A    between atoms: CA_232  and  C_233
REMARK  130  A    between atoms: CA_232  and  CB_235
REMARK  131  A    between atoms: CB_235  and  CG_236
REMARK  132  A    between atoms: CG_236  and  CD_237
REMARK  133  A    between atoms: CD_237  and  CE_238
REMARK  134  A    between atoms: CE_238  and  NZ_239
REMARK  135  A    between atoms: N_240  and  CA_241
REMARK  136  A    between atoms: CA_241  and  C_242
REMARK  137  A    between atoms: CA_241  and  CB_244
REMARK  138  A    between atoms: CB_244  and  CG_245
REMARK  139  A    between atoms: N_251  and  CA_252
REMARK  140  A    between atoms: CA_252  and  C_253
REMARK  141  A    between atoms: CA_252  and  CB_255
REMARK  142  A    between atoms: CB_255  and  CG1_256
REMARK  143  A    between atoms: CB_255  and  CG2_257
REMARK  144  A    between atoms: CG1_256  and  CD1_258
REMARK  145  A    between atoms: N_259  and  CA_260
REMARK  146  A    between atoms: CA_260  and  C_261
REMARK  147  A    between atoms: CA_260  and  CB_263
REMARK  148  A    between atoms: CB_263  and  CG_264
REMARK  149  A    between atoms: CG_264  and  CD1_265
REMARK  150  A    between atoms: CG_264  and  CD2_266
REMARK  151  A    between atoms: N_267  and  CA_268
REMARK  152  A    between atoms: CA_268  and  C_269
REMARK  153  A    between atoms: CA_268  and  CB_271
REMARK  154  A    between atoms: N_272  and  CA_273
REMARK  155  A    between atoms: CA_273  and  C_274
REMARK  156  A    between atoms: CA_273  and  CB_276
REMARK  157  A    between atoms: CB_276  and  CG_277
REMARK  158  A    between atoms: CG_277  and  CD2_278
REMARK  159  A    between atoms: CG_277  and  CD1_279
REMARK  160  A    between atoms: N_280  and  CA_281
REMARK  161  A    between atoms: CA_281  and  C_282
REMARK  162  A    between atoms: CA_281  and  CB_284
REMARK  163  A    between atoms: CB_284  and  CG_285
REMARK  164  A    between atoms: CG_285  and  CD_286
REMARK  165  A    between atoms: CD_286  and  CE_287
REMARK  166  A    between atoms: CE_287  and  NZ_288
REMARK  167  A    between atoms: N_289  and  CA_290
REMARK  168  A    between atoms: CA_290  and  C_291
REMARK  169  A    between atoms: CA_290  and  CB_293
REMARK  170  A    between atoms: CB_293  and  CG2_294
REMARK  171  A    between atoms: CB_293  and  CG1_295
REMARK  172  A    between atoms: N_296  and  CA_297
REMARK  173  A    between atoms: CA_297  and  C_298
REMARK  174  A    between atoms: CA_297  and  CB_300
REMARK  175  A    between atoms: CB_300  and  CG_301
REMARK  176  A    between atoms: CG_301  and  CD1_302
REMARK  177  A    between atoms: CG_301  and  CD2_303
REMARK  178  A    between atoms: N_304  and  CA_305
REMARK  179  A    between atoms: CA_305  and  C_306
REMARK  180  A    between atoms: CA_305  and  CB_308
REMARK  181  A    between atoms: CB_308  and  CG_309
REMARK  182  A    between atoms: N_315  and  CA_316
REMARK  183  A    between atoms: CA_316  and  C_317
REMARK  184  A    between atoms: CA_316  and  CB_319
REMARK  185  A    between atoms: CB_319  and  CG_320
REMARK  186  A    between atoms: CG_320  and  CD_321
REMARK  187  A    between atoms: CD_321  and  CE_322
REMARK  188  A    between atoms: CE_322  and  NZ_323
REMARK  189  A    between atoms: N_324  and  CA_325
REMARK  190  A    between atoms: CA_325  and  C_326
REMARK  191  A    between atoms: CA_325  and  CB_328
REMARK  192  A    between atoms: N_329  and  CA_330
REMARK  193  A    between atoms: CA_330  and  C_331
REMARK  194  A    between atoms: CA_330  and  CB_333
REMARK  195  A    between atoms: CB_333  and  CG_334
REMARK  196  A    between atoms: CG_334  and  CD_335
REMARK  197  A    between atoms: N_338  and  CA_339
REMARK  198  A    between atoms: CA_339  and  C_340
REMARK  199  A    between atoms: CA_339  and  CB_342
REMARK  200  A    between atoms: CB_342  and  CG_343
REMARK  201  A    between atoms: CG_343  and  CD1_344
REMARK  202  A    between atoms: CG_343  and  CD2_345
REMARK  203  A    between atoms: N_346  and  CA_347
REMARK  204  A    between atoms: CA_347  and  C_348
REMARK  205  A    between atoms: CA_347  and  CB_350
REMARK  206  A    between atoms: CB_350  and  CG_351
REMARK  207  A    between atoms: CG_351  and  CD_352
REMARK  208  A    between atoms: N_355  and  C_356
REMARK  209  A    between atoms: C_356  and  C_357
REMARK  210  A    between atoms: C_356  and  C_359
REMARK  211  A    between atoms: C_359  and  C_360
REMARK  212  A    between atoms: N_361  and  CA_362
REMARK  213  A    between atoms: CA_362  and  C_363
REMARK  214  A    between atoms: CA_362  and  CB_365
REMARK  215  A    between atoms: N_366  and  CA_367
REMARK  216  A    between atoms: CA_367  and  C_368
REMARK  217  A    between atoms: N_370  and  CA_371
REMARK  218  A    between atoms: CA_371  and  C_372
REMARK  219  A    between atoms: CA_371  and  CB_374
REMARK  220  A    between atoms: CB_374  and  CG2_375
REMARK  221  A    between atoms: CB_374  and  CG1_376
REMARK  222  A    between atoms: N_377  and  CA_378
REMARK  223  A    between atoms: CA_378  and  C_379
REMARK  224  A    between atoms: CA_378  and  CB_381
REMARK  225  A    between atoms: CB_381  and  CG_382
REMARK  226  A    between atoms: CG_382  and  CD_383
REMARK  227  A    between atoms: N_386  and  CA_387
REMARK  228  A    between atoms: CA_387  and  C_388
REMARK  229  A    between atoms: CA_387  and  CB_390
REMARK  230  A    between atoms: CB_390  and  CG_391
REMARK  231  A    between atoms: N_396  and  CA_397
REMARK  232  A    between atoms: CA_397  and  C_398
REMARK  233  A    between atoms: CA_397  and  CB_400
REMARK  234  A    between atoms: CB_400  and  CG_401
REMARK  235  A    between atoms: CG_401  and  CD_402
REMARK  236  A    between atoms: N_405  and  CA_406
REMARK  237  A    between atoms: CA_406  and  C_407
REMARK  238  A    between atoms: CA_406  and  CB_409
REMARK  239  A    between atoms: CB_409  and  CG_410
REMARK  240  A    between atoms: CG_410  and  CD2_411
REMARK  241  A    between atoms: CG_410  and  CD1_412
REMARK  242  A    between atoms: N_413  and  CA_414
REMARK  243  A    between atoms: CA_414  and  C_415
REMARK  244  A    between atoms: CA_414  and  CB_417
REMARK  245  A    between atoms: CB_417  and  CG_418
REMARK  246  A    between atoms: CG_418  and  CD_419
REMARK  247  A    between atoms: CD_419  and  NE_420
REMARK  248  A    between atoms: N_424  and  CA_425
REMARK  249  A    between atoms: CA_425  and  C_426
REMARK  250  A    between atoms: CA_425  and  CB_428
REMARK  251  A    between atoms: CB_428  and  CG_429
REMARK  252  A    between atoms: CG_429  and  CD_430
REMARK  253  A    between atoms: CD_430  and  NE_431
REMARK  254  A    between atoms: N_435  and  CA_436
REMARK  255  A    between atoms: CA_436  and  C_437
REMARK  256  A    between atoms: CA_436  and  CB_439
REMARK  257  A    between atoms: CB_439  and  CG_440
REMARK  258  A    between atoms: CG_440  and  CD_441
REMARK  259  A    between atoms: N_444  and  CA_445
REMARK  260  A    between atoms: CA_445  and  C_446
REMARK  261  A    between atoms: CA_445  and  CB_448
REMARK  262  A    between atoms: CB_448  and  CG1_449
REMARK  263  A    between atoms: CB_448  and  CG2_450
REMARK  264  A    between atoms: N_451  and  C_452
REMARK  265  A    between atoms: C_452  and  C_453
REMARK  266  A    between atoms: C_452  and  C_455
REMARK  267  A    between atoms: C_455  and  C_456
REMARK  268  A    between atoms: N_457  and  CA_458
REMARK  269  A    between atoms: CA_458  and  C_459
REMARK  270  A    between atoms: CA_458  and  CB_461
REMARK  271  A    between atoms: CB_461  and  CG1_462
REMARK  272  A    between atoms: CB_461  and  CG2_463
REMARK  273  A    between atoms: CG1_462  and  CD1_464
REMARK  274  A    between atoms: N_465  and  CA_466
REMARK  275  A    between atoms: CA_466  and  C_467
REMARK  276  A    between atoms: CA_466  and  CB_469
REMARK  277  A    between atoms: CB_469  and  CG_470
REMARK  278  A    between atoms: CG_470  and  CD_471
REMARK  279  A    between atoms: N_474  and  C_475
REMARK  280  A    between atoms: C_475  and  C_476
REMARK  281  A    between atoms: C_475  and  C_478
REMARK  282  A    between atoms: C_478  and  O_479
REMARK  283  A    between atoms: N_480  and  C_481
REMARK  284  A    between atoms: C_481  and  C_482
REMARK  285  A    between atoms: C_481  and  C_484
REMARK  286  A    between atoms: C_484  and  C_485
REMARK  287  A    between atoms: N_490  and  C_491
REMARK  288  A    between atoms: C_491  and  C_492
REMARK  289  A    between atoms: C_491  and  C_494
REMARK  290  A    between atoms: C_494  and  C_495
REMARK  291  A    between atoms: C_495  and  C_496
REMARK  292  A    between atoms: C_495  and  C_497
REMARK  293  A    between atoms: N_498  and  C_499
REMARK  294  A    between atoms: C_499  and  C_500
REMARK  295  A    between atoms: C_499  and  C_502
REMARK  296  A    between atoms: C_502  and  C_503
REMARK  297  A    between atoms: C_503  and  C_504
REMARK  298  A    between atoms: C_504  and  N_505
REMARK  299  A    between atoms: N_509  and  C_510
REMARK  300  A    between atoms: C_510  and  C_511
REMARK  301  A    between atoms: C_510  and  C_513
REMARK  302  A    between atoms: C_513  and  C_514
REMARK  303  A    between atoms: C_520  and  C_521
REMARK  304  A    between atoms: N_526  and  C_527
REMARK  305  A    between atoms: C_527  and  C_528
REMARK  306  A    between atoms: C_527  and  C_530
REMARK  307  A    between atoms: C_530  and  C_531
REMARK  308  A    between atoms: N_534  and  C_535
REMARK  309  A    between atoms: C_535  and  C_536
REMARK  310  A    between atoms: C_535  and  C_538
REMARK  311  A    between atoms: C_538  and  C_539
REMARK  312  A    between atoms: C_538  and  C_540
REMARK  313  A    between atoms: C_539  and  C_541
REMARK  314  A    between atoms: N_542  and  C_543
REMARK  315  A    between atoms: C_543  and  C_544
REMARK  316  A    between atoms: C_543  and  C_546
REMARK  317  A    between atoms: C_546  and  C_547
REMARK  318  A    between atoms: C_547  and  C_548
REMARK  319  A    between atoms: C_547  and  C_549
REMARK  320  A    between atoms: N_550  and  C_551
REMARK  321  A    between atoms: C_551  and  C_552
REMARK  322  A    between atoms: C_551  and  C_554
REMARK  323  A    between atoms: C_554  and  C_555
REMARK  324  A    between atoms: C_555  and  C_556
REMARK  325  A    between atoms: C_556  and  N_557
REMARK  326  A    between atoms: N_561  and  C_562
REMARK  327  A    between atoms: C_562  and  C_567
REMARK  328  A    between atoms: C_563  and  C_564
REMARK  329  A    between atoms: C_568  and  C_569
REMARK  330  A    between atoms: C_568  and  C_571
REMARK  331  A    between atoms: C_569  and  C_572
REMARK  332  A    between atoms: C_569  and  C_573
REMARK  333  A    between atoms: C_570  and  C_573
REMARK  334  A    between atoms: N_574  and  CA_575
REMARK  335  A    between atoms: CA_575  and  C_576
REMARK  336  A    between atoms: CA_575  and  CB_578
REMARK  337  A    between atoms: CB_578  and  CG_579
REMARK  338  A    between atoms: CZ_584  and  OH_585
REMARK  339  A    between atoms: N_586  and  CA_587
REMARK  340  A    between atoms: CA_587  and  C_588
REMARK  341  A    between atoms: N_590  and  CA_591
REMARK  342  A    between atoms: CA_591  and  C_592
REMARK  343  A    between atoms: CA_591  and  CB_594
REMARK  344  A    between atoms: CB_594  and  CG_595
REMARK  345  A    between atoms: CZ_600  and  OH_601
REMARK  346  A    between atoms: N_602  and  CA_603
REMARK  347  A    between atoms: CA_603  and  C_604
REMARK  348  A    between atoms: CA_603  and  CB_606
REMARK  349  A    between atoms: CB_606  and  CG_607
REMARK  350  A    between atoms: N_613  and  CA_614
REMARK  351  A    between atoms: CA_614  and  C_615
REMARK  352  A    between atoms: CA_614  and  CB_617
REMARK  353  A    between atoms: CB_617  and  CG_618
REMARK  354  A    between atoms: N_623  and  CA_624
REMARK  355  A    between atoms: CA_624  and  C_625
REMARK  356  A    between atoms: CA_624  and  CB_627
REMARK  357  A    between atoms: CB_627  and  CG_628
REMARK  358  A    between atoms: N_631  and  CA_632
REMARK  359  A    between atoms: CA_632  and  C_633
REMARK  360  A    between atoms: CA_632  and  CB_635
REMARK  361  A    between atoms: N_636  and  CA_637
REMARK  362  A    between atoms: CA_637  and  C_638
REMARK  363  A    between atoms: CA_637  and  CB_640
REMARK  364  A    between atoms: CB_640  and  OG1_641
REMARK  365  A    between atoms: CB_640  and  CG2_642
REMARK  366  A    between atoms: N_643  and  CA_644
REMARK  367  A    between atoms: CA_644  and  C_645
REMARK  368  A    between atoms: CA_644  and  CB_647
REMARK  369  A    between atoms: CB_647  and  CG_648
REMARK  370  A    between atoms: CG_648  and  CD_649
REMARK  371  A    between atoms: CD_649  and  NE_650
REMARK  372  A    between atoms: N_654  and  CA_655
REMARK  373  A    between atoms: CA_655  and  C_656
REMARK  374  A    between atoms: CA_655  and  CB_658
REMARK  375  A    between atoms: CB_658  and  CG1_659
REMARK  376  A    between atoms: CB_658  and  CG2_660
REMARK  377  A    between atoms: N_661  and  CA_662
REMARK  378  A    between atoms: CA_662  and  C_663
REMARK  379  A    between atoms: CA_662  and  CB_665
REMARK  380  A    between atoms: CB_665  and  CG_666
REMARK  381  A    between atoms: CZ_671  and  OH_672
REMARK  382  A    between atoms: N_673  and  CA_674
REMARK  383  A    between atoms: CA_674  and  C_675
REMARK  384  A    between atoms: CA_674  and  CB_677
REMARK  385  A    between atoms: CB_677  and  CG_678
REMARK  386  A    between atoms: CG_678  and  CD2_679
REMARK  387  A    between atoms: CG_678  and  CD1_680
REMARK  388  A    between atoms: N_681  and  CA_682
REMARK  389  A    between atoms: CA_682  and  C_683
REMARK  390  A    between atoms: CA_682  and  CB_685
REMARK  391  A    between atoms: CB_685  and  CG1_686
REMARK  392  A    between atoms: CB_685  and  CG2_687
REMARK  393  A    between atoms: CG1_686  and  CD1_688
REMARK  394  A    between atoms: N_689  and  CA_690
REMARK  395  A    between atoms: CA_690  and  C_691
REMARK  396  A    between atoms: CA_690  and  CB_693
REMARK  397  A    between atoms: CB_693  and  CG_694
REMARK  398  A    between atoms: CG_694  and  CD2_695
REMARK  399  A    between atoms: CG_694  and  CD1_696
REMARK  400  A    between atoms: N_697  and  CA_698
REMARK  401  A    between atoms: CA_698  and  C_699
REMARK  402  A    between atoms: CA_698  and  CB_701
REMARK  403  A    between atoms: CB_701  and  CG_702
REMARK  404  A    between atoms: CG_702  and  CD_703
REMARK  405  A    between atoms: N_706  and  CA_707
REMARK  406  A    between atoms: CA_707  and  C_708
REMARK  407  A    between atoms: CA_707  and  CB_710
REMARK  408  A    between atoms: CB_710  and  CG_711
REMARK  409  A    between atoms: CZ_716  and  OH_717
REMARK  410  A    between atoms: N_718  and  CA_719
REMARK  411  A    between atoms: CA_719  and  C_720
REMARK  412  A    between atoms: CA_719  and  CB_722
REMARK  413  A    between atoms: CA_724  and  C_725
REMARK  414  A    between atoms: N_730  and  CA_731
REMARK  415  A    between atoms: CA_731  and  C_732
REMARK  416  A    between atoms: CA_731  and  CB_734
REMARK  417  A    between atoms: CB_734  and  CG_735
REMARK  418  A    between atoms: CG_735  and  CD1_736
REMARK  419  A    between atoms: CG_735  and  CD2_737
REMARK  420  A    between atoms: N_738  and  CA_739
REMARK  421  A    between atoms: CA_739  and  C_740
REMARK  422  A    between atoms: N_742  and  CA_743
REMARK  423  A    between atoms: CA_743  and  C_744
REMARK  424  A    between atoms: CA_743  and  CB_746
REMARK  425  A    between atoms: CB_746  and  OG1_747
REMARK  426  A    between atoms: CB_746  and  CG2_748
REMARK  427  A    between atoms: N_749  and  CA_750
REMARK  428  A    between atoms: CA_750  and  C_751
REMARK  429  A    between atoms: CA_750  and  CB_753
REMARK  430  A    between atoms: CB_753  and  CG2_754
REMARK  431  A    between atoms: CB_753  and  CG1_755
REMARK  432  A    between atoms: N_756  and  CA_757
REMARK  433  A    between atoms: CA_757  and  C_758
REMARK  434  A    between atoms: CA_757  and  CB_760
REMARK  435  A    between atoms: CB_760  and  CG_761
REMARK  436  A    between atoms: CZ_766  and  OH_767
REMARK  437  A    between atoms: N_768  and  C_769
REMARK  438  A    between atoms: C_769  and  C_770
REMARK  439  A    between atoms: C_769  and  C_772
REMARK  440  A    between atoms: C_772  and  C_773
REMARK  441  A    between atoms: N_774  and  CA_775
REMARK  442  A    between atoms: CA_775  and  C_776
REMARK  443  A    between atoms: CA_775  and  CB_778
REMARK  444  A    between atoms: CB_778  and  CG_779
REMARK  445  A    between atoms: CG_779  and  CD_780
REMARK  446  A    between atoms: N_783  and  CA_784
REMARK  447  A    between atoms: CA_784  and  C_785
REMARK  448  A    between atoms: CA_784  and  CB_787
REMARK  449  A    between atoms: CB_787  and  CG_788
REMARK  450  A    between atoms: CG_788  and  CD2_789
REMARK  451  A    between atoms: CG_788  and  CD1_790
REMARK  452  A    between atoms: N_791  and  CA_792
REMARK  453  A    between atoms: CA_792  and  C_793
REMARK  454  A    between atoms: CA_792  and  CB_795
REMARK  455  A    between atoms: CB_795  and  CG_796
REMARK  456  A    between atoms: CG_796  and  CD_797
REMARK  457  A    between atoms: N_800  and  CA_801
REMARK  458  A    between atoms: CA_801  and  C_802
REMARK  459  A    between atoms: CA_801  and  CB_804
REMARK  460  A    between atoms: CB_804  and  CG_805
REMARK  461  A    between atoms: CG_805  and  CD_806
REMARK  462  A    between atoms: CD_806  and  CE_807
REMARK  463  A    between atoms: CE_807  and  NZ_808
REMARK  464  A    between atoms: N_809  and  CA_810
REMARK  465  A    between atoms: CA_810  and  C_811
REMARK  466  A    between atoms: CA_810  and  CB_813
REMARK  467  A    between atoms: CB_813  and  CG_814
REMARK  468  A    between atoms: CG_814  and  CD1_815
REMARK  469  A    between atoms: CG_814  and  CD2_816
REMARK  470  A    between atoms: N_817  and  CA_818
REMARK  471  A    between atoms: CA_818  and  C_819
REMARK  472  A    between atoms: CA_818  and  CB_821
REMARK  473  A    between atoms: CB_821  and  OG_822
REMARK  474  A    between atoms: N_823  and  CA_824
REMARK  475  A    between atoms: CA_824  and  C_825
REMARK  476  A    between atoms: CA_824  and  CB_827
REMARK  477  A    between atoms: CB_827  and  CG_828
REMARK  478  A    between atoms: CG_828  and  CD_829
REMARK  479  A    between atoms: CD_829  and  CE_830
REMARK  480  A    between atoms: CE_830  and  NZ_831
REMARK  481  A    between atoms: N_832  and  CA_833
REMARK  482  A    between atoms: CA_833  and  C_834
REMARK  483  A    between atoms: CA_833  and  CB_836
REMARK  484  A    between atoms: CB_836  and  CG_837
REMARK  485  A    between atoms: N_843  and  CA_844
REMARK  486  A    between atoms: CA_844  and  C_845
REMARK  487  A    between atoms: CA_844  and  CB_847
REMARK  488  A    between atoms: CB_847  and  CG_848
REMARK  489  A    between atoms: N_851  and  CA_852
REMARK  490  A    between atoms: CA_852  and  C_853
REMARK  491  A    between atoms: CA_852  and  CB_855
REMARK  492  A    between atoms: CB_855  and  CG_856
REMARK  493  A    between atoms: CG_856  and  CD_857
REMARK  494  A    between atoms: N_860  and  CA_861
REMARK  495  A    between atoms: CA_861  and  C_862
REMARK  496  A    between atoms: CA_861  and  CB_864
REMARK  497  A    between atoms: CB_864  and  CG_865
REMARK  498  A    between atoms: CG_865  and  CD_866
REMARK  499  A    between atoms: N_869  and  CA_870
REMARK  500  A    between atoms: CA_870  and  C_871
REMARK  501  A    between atoms: CA_870  and  CB_873
REMARK  502  A    between atoms: CB_873  and  CG_874
REMARK  503  A    between atoms: CG_874  and  CD_875
REMARK  504  A    between atoms: CD_875  and  NE_876
REMARK  505  A    between atoms: N_880  and  CA_881
REMARK  506  A    between atoms: CA_881  and  C_882
REMARK  507  A    between atoms: CA_881  and  CB_884
REMARK  508  A    between atoms: CB_884  and  OG1_885
REMARK  509  A    between atoms: CB_884  and  CG2_886
REMARK  510  A    between atoms: N_887  and  CA_888
REMARK  511  A    between atoms: CA_888  and  C_889
REMARK  512  A    between atoms: CA_888  and  CB_891
REMARK  513  A    between atoms: N_892  and  CA_893
REMARK  514  A    between atoms: CA_893  and  C_894
REMARK  515  A    between atoms: CA_893  and  CB_896
REMARK  516  A    between atoms: CB_896  and  OG1_897
REMARK  517  A    between atoms: CB_896  and  CG2_898
REMARK  518  A    between atoms: N_899  and  CA_900
REMARK  519  A    between atoms: CA_900  and  C_901
REMARK  520  A    between atoms: CA_900  and  CB_903
REMARK  521  A    between atoms: CB_903  and  CG_904
REMARK  522  A    between atoms: CZ_909  and  OH_910
REMARK  523  A    between atoms: N_911  and  CA_912
REMARK  524  A    between atoms: CA_912  and  C_913
REMARK  525  A    between atoms: CA_912  and  CB_915
REMARK  526  A    between atoms: CB_915  and  CG1_916
REMARK  527  A    between atoms: CB_915  and  CG2_917
REMARK  528  A    between atoms: CG1_916  and  CD1_918
REMARK  529  A    between atoms: N_919  and  CA_920
REMARK  530  A    between atoms: CA_920  and  C_921
REMARK  531  A    between atoms: CA_920  and  CB_923
REMARK  532  A    between atoms: CB_923  and  OG1_924
REMARK  533  A    between atoms: CB_923  and  CG2_925
REMARK  534  A    between atoms: N_926  and  CA_927
REMARK  535  A    between atoms: CA_927  and  C_928
REMARK  536  A    between atoms: CA_927  and  CB_930
REMARK  537  A    between atoms: CB_930  and  CG_931
REMARK  538  A    between atoms: CG_931  and  CD_932
REMARK  539  A    between atoms: N_935  and  CA_936
REMARK  540  A    between atoms: CA_936  and  C_937
REMARK  541  A    between atoms: CA_936  and  CB_939
REMARK  542  A    between atoms: CB_939  and  CG_940
REMARK  543  A    between atoms: CG_940  and  CD2_941
REMARK  544  A    between atoms: CG_940  and  CD1_942
REMARK  545  A    between atoms: N_943  and  CA_944
REMARK  546  A    between atoms: CA_944  and  C_945
REMARK  547  A    between atoms: CA_944  and  CB_947
REMARK  548  A    between atoms: N_948  and  CA_949
REMARK  549  A    between atoms: CA_949  and  C_950
REMARK  550  A    between atoms: CA_949  and  CB_952
REMARK  551  A    between atoms: CB_952  and  CG_953
REMARK  552  A    between atoms: N_956  and  CA_957
REMARK  553  A    between atoms: CA_957  and  C_958
REMARK  554  A    between atoms: CA_957  and  CB_960
REMARK  555  A    between atoms: N_961  and  CA_962
REMARK  556  A    between atoms: CA_962  and  C_963
REMARK  557  A    between atoms: CA_962  and  CB_965
REMARK  558  A    between atoms: CB_965  and  CG_966
REMARK  559  A    between atoms: CG_966  and  CD2_967
REMARK  560  A    between atoms: CG_966  and  CD1_968
REMARK  561  A    between atoms: N_969  and  CA_970
REMARK  562  A    between atoms: CA_970  and  C_971
REMARK  563  A    between atoms: CA_970  and  CB_973
REMARK  564  A    between atoms: CB_973  and  OG_974
REMARK  565  A    between atoms: N_975  and  CA_976
REMARK  566  A    between atoms: CA_976  and  C_977
REMARK  567  A    between atoms: CA_976  and  CB_979
REMARK  568  A    between atoms: CB_979  and  CG_980
REMARK  569  A    between atoms: CZ_985  and  OH_986
REMARK  570  A    between atoms: N_987  and  CA_988
REMARK  571  A    between atoms: CA_988  and  C_989
REMARK  572  A    between atoms: CA_988  and  CB_991
REMARK  573  A    between atoms: CB_991  and  SG_992
REMARK  574  A    between atoms: N_993  and  CA_994
REMARK  575  A    between atoms: CA_994  and  C_995
REMARK  576  A    between atoms: CA_994  and  CB_997
REMARK  577  A    between atoms: CB_997  and  CG_998
REMARK  578  A    between atoms: N_1003  and  C_1004
REMARK  579  A    between atoms: C_1004  and  C_1005
REMARK  580  A    between atoms: C_1004  and  C_1007
REMARK  581  A    between atoms: C_1007  and  O_1008
REMARK  582  A    between atoms: N_1009  and  C_1010
REMARK  583  A    between atoms: C_1010  and  C_1011
REMARK  584  A    between atoms: C_1010  and  C_1013
REMARK  585  A    between atoms: C_1013  and  C_1014
REMARK  586  A    between atoms: C_1014  and  C_1015
REMARK  587  A    between atoms: C_1015  and  C_1016
REMARK  588  A    between atoms: C_1016  and  N_1017
REMARK  589  A    between atoms: N_1018  and  C_1019
REMARK  590  A    between atoms: C_1020  and  C_1021
REMARK  591  A    between atoms: C_1020  and  C_1024
REMARK  592  A    between atoms: C_1023  and  C_1026
REMARK  593  A    between atoms: C_1025  and  C_1026
REMARK  594  A    between atoms: C_1027  and  N_1029
REMARK  595  A    between atoms: C_1028  and  N_1030
REMARK  596  A    between atoms: N_1037  and  C_1038
REMARK  597  A    between atoms: C_1038  and  C_1039
REMARK  598  A    between atoms: C_1038  and  C_1041
REMARK  599  A    between atoms: C_1041  and  C_1042
REMARK  600  A    between atoms: C_1041  and  C_1043
REMARK  601  A    between atoms: N_1044  and  C_1045
REMARK  602  A    between atoms: C_1045  and  C_1046
REMARK  603  A    between atoms: C_1045  and  C_1048
REMARK  604  A    between atoms: C_1048  and  C_1049
REMARK  605  A    between atoms: C_1048  and  C_1050
REMARK  606  A    between atoms: C_1049  and  C_1051
REMARK  607  A    between atoms: N_1052  and  C_1053
REMARK  608  A    between atoms: C_1053  and  C_1054
REMARK  609  A    between atoms: C_1053  and  C_1056
REMARK  610  A    between atoms: C_1056  and  C_1057
REMARK  611  A    between atoms: N_1062  and  C_1063
REMARK  612  A    between atoms: C_1063  and  C_1064
REMARK  613  A    between atoms: C_1063  and  C_1066
REMARK  614  A    between atoms: C_1066  and  C_1067
REMARK  615  A    between atoms: C_1067  and  C_1068
REMARK  616  A    between atoms: C_1068  and  N_1069
REMARK  617  A    between atoms: N_1073  and  C_1074
REMARK  618  A    between atoms: C_1074  and  C_1077
REMARK  619  A    between atoms: C_1077  and  C_1078
REMARK  620  A    between atoms: N_1081  and  C_1084
REMARK  621  A    between atoms: C_1083  and  C_1085
REMARK  622  A    between atoms: C_1085  and  C_1086
REMARK  623  A    between atoms: C_1085  and  O_1087
REMARK  624  A    between atoms: C_1085  and  N_1097
REMARK  625  A    between atoms: C_1089  and  C_1094
REMARK  626  A    between atoms: C_1090  and  C_1091
REMARK  627  A    between atoms: C_1093  and  C_1094
REMARK  628  A    between atoms: C_1098  and  C_1099
REMARK  629  A    between atoms: C_1098  and  C_1101
REMARK  630  A    between atoms: C_1101  and  C_1102
REMARK  631  A    between atoms: C_1102  and  C_1103
REMARK  632  A    between atoms: C_1103  and  C_1104
REMARK  633  A    between atoms: C_1104  and  N_1105
REMARK  634  A    between atoms: C_1107  and  C_1108
REMARK  635  A    between atoms: N_1113  and  CA_1114
REMARK  636  A    between atoms: CA_1114  and  C_1115
REMARK  637  A    between atoms: CA_1114  and  CB_1117
REMARK  638  A    between atoms: CB_1117  and  CG_1118
REMARK  639  A    between atoms: CG_1118  and  CD_1119
REMARK  640  A    between atoms: N_1122  and  CA_1123
REMARK  641  A    between atoms: CA_1123  and  C_1124
REMARK  642  A    between atoms: CA_1123  and  CB_1126
REMARK  643  A    between atoms: CB_1126  and  CG_1127
REMARK  644  A    between atoms: N_1130  and  CA_1131
REMARK  645  A    between atoms: CA_1131  and  C_1132
REMARK  646  A    between atoms: CA_1131  and  CB_1134
REMARK  647  A    between atoms: CB_1134  and  CG_1135
REMARK  648  A    between atoms: CG_1135  and  CD2_1136
REMARK  649  A    between atoms: CG_1135  and  CD1_1137
REMARK  650  A    between atoms: N_1138  and  CA_1139
REMARK  651  A    between atoms: CA_1139  and  C_1140
REMARK  652  A    between atoms: CA_1139  and  CB_1142
REMARK  653  A    between atoms: CB_1142  and  CG_1143
REMARK  654  A    between atoms: CG_1143  and  CD1_1144
REMARK  655  A    between atoms: CG_1143  and  CD2_1145
REMARK  656  A    between atoms: N_1146  and  CA_1147
REMARK  657  A    between atoms: CA_1147  and  C_1148
REMARK  658  A    between atoms: CA_1147  and  CB_1150
REMARK  659  A    between atoms: CB_1150  and  CG_1151
REMARK  660  A    between atoms: CG_1151  and  CD2_1152
REMARK  661  A    between atoms: CG_1151  and  CD1_1153
REMARK  662  A    between atoms: N_1154  and  CA_1155
REMARK  663  A    between atoms: CA_1155  and  C_1156
REMARK  664  A    between atoms: N_1158  and  CA_1159
REMARK  665  A    between atoms: CA_1159  and  C_1160
REMARK  666  A    between atoms: CA_1159  and  CB_1162
REMARK  667  A    between atoms: CB_1162  and  OG_1163
REMARK  668  A    between atoms: N_1164  and  CA_1165
REMARK  669  A    between atoms: CA_1165  and  C_1166
REMARK  670  A    between atoms: CA_1165  and  CB_1168
REMARK  671  A    between atoms: N_1169  and  CA_1170
REMARK  672  A    between atoms: CA_1170  and  C_1171
REMARK  673  A    between atoms: N_1173  and  CA_1174
REMARK  674  A    between atoms: CA_1174  and  C_1175
REMARK  675  A    between atoms: CA_1174  and  CB_1177
REMARK  676  A    between atoms: CB_1177  and  CG_1178
REMARK  677  A    between atoms: CG_1178  and  CD_1179
REMARK  678  A    between atoms: N_1182  and  CA_1183
REMARK  679  A    between atoms: CA_1183  and  C_1184
REMARK  680  A    between atoms: CA_1183  and  CB_1186
REMARK  681  A    between atoms: CB_1186  and  CG_1187
REMARK  682  A    between atoms: CG_1187  and  CD2_1188
REMARK  683  A    between atoms: CG_1187  and  CD1_1189
REMARK  684  A    between atoms: N_1190  and  CA_1191
REMARK  685  A    between atoms: CA_1191  and  C_1192
REMARK  686  A    between atoms: CA_1191  and  CB_1194
REMARK  687  A    between atoms: CB_1194  and  CG_1195
REMARK  688  A    between atoms: CG_1195  and  CD_1196
REMARK  689  A    between atoms: CD_1196  and  CE_1197
REMARK  690  A    between atoms: CE_1197  and  NZ_1198
REMARK  691  A    between atoms: N_1199  and  CA_1200
REMARK  692  A    between atoms: CA_1200  and  C_1201
REMARK  693  A    between atoms: CA_1200  and  CB_1203
REMARK  694  A    between atoms: CB_1203  and  CG1_1204
REMARK  695  A    between atoms: CB_1203  and  CG2_1205
REMARK  696  A    between atoms: CG1_1204  and  CD1_1206
REMARK  697  A    between atoms: N_1207  and  CA_1208
REMARK  698  A    between atoms: CA_1208  and  C_1209
REMARK  699  A    between atoms: CA_1208  and  CB_1211
REMARK  700  A    between atoms: N_1212  and  CA_1213
REMARK  701  A    between atoms: CA_1213  and  C_1214
REMARK  702  A    between atoms: CA_1213  and  CB_1216
REMARK  703  A    between atoms: CB_1216  and  CG_1217
REMARK  704  A    between atoms: N_1220  and  CA_1221
REMARK  705  A    between atoms: CA_1221  and  C_1222
REMARK  706  A    between atoms: CA_1221  and  CB_1224
REMARK  707  A    between atoms: CB_1224  and  CG_1225
REMARK  708  A    between atoms: N_1231  and  CA_1232
REMARK  709  A    between atoms: CA_1232  and  C_1233
REMARK  710  A    between atoms: N_1235  and  CA_1236
REMARK  711  A    between atoms: CA_1236  and  C_1237
REMARK  712  A    between atoms: CA_1236  and  CB_1239
REMARK  713  A    between atoms: CB_1239  and  CG_1240
REMARK  714  A    between atoms: N_1249  and  CA_1250
REMARK  715  A    between atoms: CA_1250  and  C_1251
REMARK  716  A    between atoms: CA_1250  and  CB_1253
REMARK  717  A    between atoms: CB_1253  and  OG_1254
REMARK  718  A    between atoms: N_1255  and  CA_1256
REMARK  719  A    between atoms: CA_1256  and  C_1257
REMARK  720  A    between atoms: CA_1256  and  CB_1259
REMARK  721  A    between atoms: CB_1259  and  CG2_1260
REMARK  722  A    between atoms: CB_1259  and  CG1_1261
REMARK  723  A    between atoms: N_1262  and  CA_1263
REMARK  724  A    between atoms: CA_1263  and  C_1264
REMARK  725  A    between atoms: CA_1263  and  CB_1266
REMARK  726  A    between atoms: CB_1266  and  CG_1267
REMARK  727  A    between atoms: N_1272  and  CA_1273
REMARK  728  A    between atoms: CA_1273  and  C_1274
REMARK  729  A    between atoms: CA_1273  and  CB_1276
REMARK  730  A    between atoms: CA_1278  and  C_1279
REMARK  731  A    between atoms: N_1284  and  CA_1285
REMARK  732  A    between atoms: CA_1285  and  C_1286
REMARK  733  A    between atoms: CA_1285  and  CB_1288
REMARK  734  A    between atoms: CB_1288  and  OG_1289
REMARK  735  A    between atoms: N_1290  and  CA_1291
REMARK  736  A    between atoms: CA_1291  and  C_1292
REMARK  737  A    between atoms: CA_1291  and  CB_1294
REMARK  738  A    between atoms: CB_1294  and  OG_1295
REMARK  739  A    between atoms: N_1296  and  C_1297
REMARK  740  A    between atoms: C_1297  and  C_1298
REMARK  741  A    between atoms: C_1297  and  C_1300
REMARK  742  A    between atoms: C_1300  and  C_1301
REMARK  743  A    between atoms: C_1301  and  C_1302
REMARK  744  A    between atoms: N_1303  and  CA_1304
REMARK  745  A    between atoms: CA_1304  and  C_1305
REMARK  746  A    between atoms: CA_1304  and  CB_1307
REMARK  747  A    between atoms: CB_1307  and  CG_1308
REMARK  748  A    between atoms: CG_1308  and  CD_1309
REMARK  749  A    between atoms: CD_1309  and  NE_1310
REMARK  750  A    between atoms: N_1314  and  CA_1315
REMARK  751  A    between atoms: CA_1315  and  C_1316
REMARK  752  A    between atoms: CA_1315  and  CB_1318
REMARK  753  A    between atoms: CB_1318  and  OG1_1319
REMARK  754  A    between atoms: CB_1318  and  CG2_1320
REMARK  755  A    between atoms: N_1321  and  C_1322
REMARK  756  A    between atoms: C_1322  and  C_1323
REMARK  757  A    between atoms: C_1322  and  C_1325
REMARK  758  A    between atoms: C_1325  and  C_1326
REMARK  759  A    between atoms: C_1326  and  C_1327
REMARK  760  A    between atoms: C_1326  and  C_1328
REMARK  761  A    between atoms: N_1329  and  C_1330
REMARK  762  A    between atoms: C_1330  and  C_1331
REMARK  763  A    between atoms: C_1330  and  C_1333
REMARK  764  A    between atoms: N_1334  and  C_1335
REMARK  765  A    between atoms: C_1335  and  C_1336
REMARK  766  A    between atoms: N_1338  and  C_1339
REMARK  767  A    between atoms: C_1339  and  C_1340
REMARK  768  A    between atoms: C_1339  and  C_1342
REMARK  769  A    between atoms: C_1342  and  O_1343
REMARK  770  A    between atoms: C_1342  and  C_1344
REMARK  771  A    between atoms: N_1345  and  C_1346
REMARK  772  A    between atoms: C_1346  and  C_1347
REMARK  773  A    between atoms: C_1346  and  C_1349
REMARK  774  A    between atoms: C_1349  and  C_1350
REMARK  775  A    between atoms: C_1350  and  C_1351
REMARK  776  A    between atoms: C_1350  and  C_1352
REMARK  777  A    between atoms: N_1353  and  C_1354
REMARK  778  A    between atoms: C_1354  and  C_1355
REMARK  779  A    between atoms: C_1354  and  C_1357
REMARK  780  A    between atoms: C_1357  and  C_1358
REMARK  781  A    between atoms: N_1361  and  C_1362
REMARK  782  A    between atoms: C_1362  and  C_1363
REMARK  783  A    between atoms: C_1362  and  C_1365
REMARK  784  A    between atoms: C_1365  and  C_1366
REMARK  785  A    between atoms: C_1371  and  O_1372
REMARK  786  A    between atoms: N_1373  and  C_1374
REMARK  787  A    between atoms: C_1374  and  C_1375
REMARK  788  A    between atoms: C_1374  and  C_1377
REMARK  789  A    between atoms: C_1377  and  C_1378
REMARK  790  A    between atoms: C_1378  and  C_1379
REMARK  791  A    between atoms: C_1378  and  C_1380
REMARK  792  A    between atoms: C_1382  and  C_1383
REMARK  793  A    between atoms: C_1389  and  C_1390
REMARK  794  A    between atoms: N_1395  and  C_1396
REMARK  795  A    between atoms: C_1396  and  C_1399
REMARK  796  A    between atoms: C_1399  and  C_1400
REMARK  797  A    between atoms: C_1400  and  C_1401
REMARK  798  A    between atoms: N_1405  and  C_1406
REMARK  799  A    between atoms: C_1407  and  C_1412
REMARK  800  A    between atoms: C_1408  and  O_1410
REMARK  801  A    between atoms: C_1409  and  O_1411
REMARK  802  A    between atoms: O_1410  and  O_1411
REMARK  803  A    between atoms: C_1412  and  C_1414
REMARK  804  A    between atoms: C_1413  and  C_1415
REMARK  805  A    between atoms: S_1416  and  C_1418
REMARK  806  A    between atoms: S_1417  and  C_1419
REMARK  807  A    between atoms: C_1418  and  C_1419
REMARK  808  A    between atoms: N_1420  and  CA_1421
REMARK  809  A    between atoms: CA_1421  and  C_1422
REMARK  810  A    between atoms: CA_1421  and  CB_1424
REMARK  811  A    between atoms: CB_1424  and  CG1_1425
REMARK  812  A    between atoms: CB_1424  and  CG2_1426
REMARK  813  A    between atoms: CG1_1425  and  CD1_1427
REMARK  814  A    between atoms: N_1428  and  CA_1429
REMARK  815  A    between atoms: CA_1429  and  C_1430
REMARK  816  A    between atoms: CA_1429  and  CB_1432
REMARK  817  A    between atoms: CB_1432  and  CG_1433
REMARK  818  A    between atoms: CG_1433  and  CD_1434
REMARK  819  A    between atoms: N_1437  and  CA_1438
REMARK  820  A    between atoms: CA_1438  and  C_1439
REMARK  821  A    between atoms: N_1441  and  CA_1442
REMARK  822  A    between atoms: CA_1442  and  C_1443
REMARK  823  A    between atoms: CA_1442  and  CB_1445
REMARK  824  A    between atoms: CB_1445  and  CG_1446
REMARK  825  A    between atoms: CG_1446  and  CD_1447
REMARK  826  A    between atoms: CD_1447  and  NE_1448
REMARK  827  A    between atoms: N_1452  and  C_1453
REMARK  828  A    between atoms: C_1453  and  C_1454
REMARK  829  A    between atoms: C_1453  and  C_1456
REMARK  830  A    between atoms: C_1456  and  C_1457
REMARK  831  A    between atoms: C_1457  and  S_1458
REMARK  832  A    between atoms: N_1459  and  CA_1460
REMARK  833  A    between atoms: CA_1460  and  C_1461
REMARK  834  A    between atoms: CA_1460  and  CB_1463
REMARK  835  A    between atoms: CB_1463  and  CG_1464
REMARK  836  A    between atoms: N_1469  and  CA_1470
REMARK  837  A    between atoms: CA_1470  and  C_1471
REMARK  838  A    between atoms: CA_1470  and  CB_1473
REMARK  839  A    between atoms: CB_1473  and  CG_1474
REMARK  840  A    between atoms: N_1477  and  CA_1478
REMARK  841  A    between atoms: CA_1478  and  C_1479
REMARK  842  A    between atoms: CA_1478  and  CB_1481
REMARK  843  A    between atoms: CB_1481  and  CG_1482
REMARK  844  A    between atoms: CG_1482  and  CD_1483
REMARK  845  A    between atoms: N_1486  and  CA_1487
REMARK  846  A    between atoms: CA_1487  and  C_1488
REMARK  847  A    between atoms: CA_1487  and  CB_1490
REMARK  848  A    between atoms: CB_1490  and  CG_1491
REMARK  849  A    between atoms: CG_1491  and  CD_1492
REMARK  850  A    between atoms: CD_1492  and  CE_1493
REMARK  851  A    between atoms: CE_1493  and  NZ_1494
REMARK  852  A    between atoms: N_1495  and  CA_1496
REMARK  853  A    between atoms: CA_1496  and  C_1497
REMARK  854  A    between atoms: CA_1496  and  CB_1499
REMARK  855  A    between atoms: CB_1499  and  CG2_1500
REMARK  856  A    between atoms: CB_1499  and  CG1_1501
REMARK  857  A    between atoms: N_1502  and  CA_1503
REMARK  858  A    between atoms: CA_1503  and  C_1504
REMARK  859  A    between atoms: CA_1503  and  CB_1506
REMARK  860  A    between atoms: CB_1506  and  CG_1507
REMARK  861  A    between atoms: N_1510  and  CA_1511
REMARK  862  A    between atoms: CA_1511  and  C_1512
REMARK  863  A    between atoms: CA_1511  and  CB_1514
REMARK  864  A    between atoms: CB_1514  and  CG_1515
REMARK  865  A    between atoms: CG_1515  and  CD2_1516
REMARK  866  A    between atoms: CG_1515  and  CD1_1517
REMARK  867  A    between atoms: N_1518  and  CA_1519
REMARK  868  A    between atoms: CA_1519  and  C_1520
REMARK  869  A    between atoms: CA_1519  and  CB_1522
REMARK  870  A    between atoms: CB_1522  and  CG_1523
REMARK  871  A    between atoms: N_1532  and  CA_1533
REMARK  872  A    between atoms: CA_1533  and  C_1534
REMARK  873  A    between atoms: CA_1533  and  CB_1536
REMARK  874  A    between atoms: CB_1536  and  OG_1537
REMARK  875  A    between atoms: N_1538  and  CA_1539
REMARK  876  A    between atoms: CA_1539  and  C_1540
REMARK  877  A    between atoms: CA_1539  and  CB_1542
REMARK  878  A    between atoms: CB_1542  and  CG_1543
REMARK  879  A    between atoms: CG_1543  and  CD2_1544
REMARK  880  A    between atoms: CG_1543  and  CD1_1545
REMARK  881  A    between atoms: N_1546  and  CA_1547
REMARK  882  A    between atoms: CA_1547  and  C_1548
REMARK  883  A    between atoms: N_1550  and  CA_1551
REMARK  884  A    between atoms: CA_1551  and  C_1552
REMARK  885  A    between atoms: CA_1551  and  CB_1554
REMARK  886  A    between atoms: CB_1554  and  CG2_1555
REMARK  887  A    between atoms: CB_1554  and  CG1_1556
REMARK  888  A    between atoms: N_1557  and  CA_1558
REMARK  889  A    between atoms: CA_1558  and  C_1559
REMARK  890  A    between atoms: CA_1558  and  CB_1561
REMARK  891  A    between atoms: CB_1561  and  CG_1562
REMARK  892  A    between atoms: CG_1562  and  CD1_1563
REMARK  893  A    between atoms: CG_1562  and  CD2_1564
REMARK  894  A    between atoms: N_1565  and  CA_1566
REMARK  895  A    between atoms: CA_1566  and  C_1567
REMARK  896  A    between atoms: CA_1566  and  CB_1569
REMARK  897  A    between atoms: CB_1569  and  SG_1570
REMARK  898  A    between atoms: N_1571  and  CA_1572
REMARK  899  A    between atoms: CA_1572  and  C_1573
REMARK  900  A    between atoms: CA_1572  and  CB_1575
REMARK  901  A    between atoms: CB_1575  and  CG_1576
REMARK  902  A    between atoms: CZ_1581  and  OH_1582
REMARK  903  A    between atoms: N_1583  and  CA_1584
REMARK  904  A    between atoms: CA_1584  and  C_1585
REMARK  905  A    between atoms: CA_1584  and  CB_1587
REMARK  906  A    between atoms: CB_1587  and  CG_1588
REMARK  907  A    between atoms: CG_1588  and  CD_1589
REMARK  908  A    between atoms: N_1592  and  CA_1593
REMARK  909  A    between atoms: CA_1593  and  C_1594
REMARK  910  A    between atoms: CA_1593  and  CB_1596
REMARK  911  A    between atoms: CB_1596  and  CG_1597
REMARK  912  A    between atoms: N_1603  and  CA_1604
REMARK  913  A    between atoms: CA_1604  and  C_1605
REMARK  914  A    between atoms: CA_1604  and  CB_1607
REMARK  915  A    between atoms: CB_1607  and  CG_1608
REMARK  916  A    between atoms: CG_1608  and  CD1_1609
REMARK  917  A    between atoms: CG_1608  and  CD2_1610
REMARK  918  A    between atoms: N_1611  and  CA_1612
REMARK  919  A    between atoms: CA_1612  and  C_1613
REMARK  920  A    between atoms: CA_1612  and  CB_1615
REMARK  921  A    between atoms: CB_1615  and  CG2_1616
REMARK  922  A    between atoms: CB_1615  and  CG1_1617
REMARK  923  A    between atoms: N_1618  and  CA_1619
REMARK  924  A    between atoms: CA_1619  and  C_1620
REMARK  925  A    between atoms: N_1622  and  C_1623
REMARK  926  A    between atoms: C_1623  and  C_1624
REMARK  927  A    between atoms: C_1623  and  C_1626
REMARK  928  A    between atoms: C_1626  and  C_1627
REMARK  929  A    between atoms: C_1627  and  C_1628
REMARK  930  A    between atoms: CA_1630  and  C_1631
REMARK  931  A    between atoms: CA_1637  and  C_1638
REMARK  932  A    between atoms: N_1643  and  CA_1644
REMARK  933  A    between atoms: CA_1644  and  C_1645
REMARK  934  A    between atoms: CA_1644  and  CB_1647
REMARK  935  A    between atoms: CB_1647  and  CG_1648
REMARK  936  A    between atoms: N_1654  and  CA_1655
REMARK  937  A    between atoms: CA_1655  and  C_1656
REMARK  938  A    between atoms: CA_1655  and  CB_1658
REMARK  939  A    between atoms: CB_1658  and  CG_1659
REMARK  940  A    between atoms: CG_1659  and  CD_1660
REMARK  941  A    between atoms: N_1663  and  CA_1664
REMARK  942  A    between atoms: CA_1664  and  C_1665
REMARK  943  A    between atoms: CA_1664  and  CB_1667
REMARK  944  A    between atoms: N_1668  and  CA_1669
REMARK  945  A    between atoms: CA_1669  and  C_1670
REMARK  946  A    between atoms: CA_1669  and  CB_1672
REMARK  947  A    between atoms: CB_1672  and  CG_1673
REMARK  948  A    between atoms: N_1676  and  CA_1677
REMARK  949  A    between atoms: CA_1677  and  C_1678
REMARK  950  A    between atoms: CA_1677  and  CB_1680
REMARK  951  A    between atoms: CB_1680  and  OG1_1681
REMARK  952  A    between atoms: CB_1680  and  CG2_1682
REMARK  953  A    between atoms: N_1683  and  CA_1684
REMARK  954  A    between atoms: CA_1684  and  C_1685
REMARK  955  A    between atoms: CA_1684  and  CB_1687
REMARK  956  A    between atoms: CB_1687  and  CG_1688
REMARK  957  A    between atoms: CZ_1693  and  OH_1694
REMARK  958  A    between atoms: N_1695  and  CA_1696
REMARK  959  A    between atoms: CA_1696  and  C_1697
REMARK  960  A    between atoms: CA_1696  and  CB_1699
REMARK  961  A    between atoms: CB_1699  and  CG_1700
REMARK  962  A    between atoms: CG_1700  and  CD_1701
REMARK  963  A    between atoms: N_1704  and  CA_1705
REMARK  964  A    between atoms: CA_1705  and  C_1706
REMARK  965  A    between atoms: CA_1705  and  CB_1708
REMARK  966  A    between atoms: CB_1708  and  CG_1709
REMARK  967  A    between atoms: CG_1709  and  CD_1710
REMARK  968  A    between atoms: N_1713  and  CA_1714
REMARK  969  A    between atoms: CA_1714  and  C_1715
REMARK  970  A    between atoms: CA_1714  and  CB_1717
REMARK  971  A    between atoms: CB_1717  and  OG1_1718
REMARK  972  A    between atoms: CB_1717  and  CG2_1719
REMARK  973  A    between atoms: N_1720  and  CA_1721
REMARK  974  A    between atoms: CA_1721  and  C_1722
REMARK  975  A    between atoms: CA_1721  and  CB_1724
REMARK  976  A    between atoms: CB_1724  and  CG_1725
REMARK  977  A    between atoms: CZ_1730  and  OH_1731
REMARK  978  A    between atoms: N_1732  and  CA_1733
REMARK  979  A    between atoms: CA_1733  and  C_1734
REMARK  980  A    between atoms: CA_1733  and  CB_1736
REMARK  981  A    between atoms: CB_1736  and  SG_1737
REMARK  982  A    between atoms: N_1738  and  C_1739
REMARK  983  A    between atoms: C_1739  and  C_1740
REMARK  984  A    between atoms: C_1739  and  C_1742
REMARK  985  A    between atoms: C_1742  and  C_1743
REMARK  986  A    between atoms: C_1743  and  C_1744
REMARK  987  A    between atoms: C_1744  and  N_1745
REMARK  988  A    between atoms: N_1746  and  CA_1747
REMARK  989  A    between atoms: CA_1747  and  C_1748
REMARK  990  A    between atoms: CA_1747  and  CB_1750
REMARK  991  A    between atoms: CB_1750  and  CG1_1751
REMARK  992  A    between atoms: CB_1750  and  CG2_1752
REMARK  993  A    between atoms: CG1_1751  and  CD1_1753
REMARK  994  A    between atoms: N_1754  and  C_1755
REMARK  995  A    between atoms: C_1755  and  C_1756
REMARK  996  A    between atoms: C_1755  and  C_1758
REMARK  997  A    between atoms: C_1758  and  O_1759
REMARK  998  A    between atoms: N_1760  and  C_1761
REMARK  999  A    between atoms: C_1761  and  C_1762
REMARK  1000  A    between atoms: C_1761  and  C_1764
REMARK  1001  A    between atoms: C_1764  and  C_1765
REMARK  1002  A    between atoms: C_1765  and  C_1766
REMARK  1003  A    between atoms: C_1766  and  N_1767
REMARK  1004  A    between atoms: N_1771  and  C_1772
REMARK  1005  A    between atoms: C_1772  and  C_1773
REMARK  1006  A    between atoms: C_1772  and  C_1775
REMARK  1007  A    between atoms: C_1775  and  C_1776
REMARK  1008  A    between atoms: C_1775  and  C_1777
REMARK  1009  A    between atoms: N_1778  and  C_1779
REMARK  1010  A    between atoms: C_1779  and  C_1780
REMARK  1011  A    between atoms: C_1779  and  C_1782
REMARK  1012  A    between atoms: C_1782  and  C_1783
REMARK  1013  A    between atoms: C_1783  and  C_1784
REMARK  1014  A    between atoms: N_1787  and  C_1788
REMARK  1015  A    between atoms: C_1788  and  C_1789
REMARK  1016  A    between atoms: C_1788  and  C_1791
REMARK  1017  A    between atoms: C_1791  and  C_1792
REMARK  1018  A    between atoms: N_1798  and  C_1799
REMARK  1019  A    between atoms: C_1799  and  C_1800
REMARK  1020  A    between atoms: C_1799  and  C_1802
REMARK  1021  A    between atoms: C_1802  and  O_1803
REMARK  1022  A    between atoms: C_1802  and  C_1804
REMARK  1023  A    between atoms: N_1805  and  C_1806
REMARK  1024  A    between atoms: C_1806  and  C_1807
REMARK  1025  A    between atoms: C_1806  and  C_1809
REMARK  1026  A    between atoms: C_1809  and  C_1810
REMARK  1027  A    between atoms: C_1817  and  C_1818
REMARK  1028  A    between atoms: N_1823  and  C_1824
REMARK  1029  A    between atoms: C_1824  and  C_1825
REMARK  1030  A    between atoms: C_1824  and  C_1827
REMARK  1031  A    between atoms: C_1827  and  C_1828
REMARK  1032  A    between atoms: N_1831  and  C_1832
REMARK  1033  A    between atoms: C_1832  and  C_1833
REMARK  1034  A    between atoms: C_1832  and  C_1835
REMARK  1035  A    between atoms: C_1835  and  C_1836
REMARK  1036  A    between atoms: N_1842  and  C_1843
REMARK  1037  A    between atoms: C_1843  and  C_1844
REMARK  1038  A    between atoms: C_1843  and  C_1846
REMARK  1039  A    between atoms: C_1846  and  C_1847
REMARK  1040  A    between atoms: C_1846  and  C_1848
REMARK  1041  A    between atoms: N_1849  and  C_1850
REMARK  1042  A    between atoms: C_1850  and  C_1851
REMARK  1043  A    between atoms: C_1850  and  C_1853
REMARK  1044  A    between atoms: C_1853  and  O_1854
REMARK  1045  A    between atoms: C_1853  and  C_1855
REMARK  1046  A    between atoms: N_1856  and  C_1857
REMARK  1047  A    between atoms: C_1858  and  C_1859
REMARK  1048  A    between atoms: C_1858  and  C_1861
REMARK  1049  A    between atoms: C_1862  and  C_1863
REMARK  1050  A    between atoms: C_1862  and  C_1864
REMARK  1051  A    between atoms: C_1863  and  C_1865
REMARK  1052  A    between atoms: N_1871  and  C_1872
REMARK  1053  A    between atoms: C_1872  and  C_1873
REMARK  1054  A    between atoms: N_1875  and  CA_1876
REMARK  1055  A    between atoms: CA_1876  and  C_1877
REMARK  1056  A    between atoms: CA_1876  and  CB_1879
REMARK  1057  A    between atoms: N_1880  and  CA_1881
REMARK  1058  A    between atoms: CA_1881  and  C_1882
REMARK  1059  A    between atoms: CA_1881  and  CB_1884
REMARK  1060  A    between atoms: CB_1884  and  CG_1885
REMARK  1061  A    between atoms: CG_1885  and  CD_1886
REMARK  1062  A    between atoms: CD_1886  and  NE_1887
REMARK  1063  A    between atoms: N_1891  and  CA_1892
REMARK  1064  A    between atoms: CA_1892  and  C_1893
REMARK  1065  A    between atoms: CA_1892  and  CB_1895
REMARK  1066  A    between atoms: CB_1895  and  CG_1896
REMARK  1067  A    between atoms: N_1899  and  CA_1900
REMARK  1068  A    between atoms: CA_1900  and  C_1901
REMARK  1069  A    between atoms: CA_1900  and  CB_1903
REMARK  1070  A    between atoms: CB_1903  and  CG_1904
REMARK  1071  A    between atoms: CG_1904  and  CD1_1905
REMARK  1072  A    between atoms: CG_1904  and  CD2_1906
REMARK  1073  A    between atoms: N_1907  and  CA_1908
REMARK  1074  A    between atoms: CA_1908  and  C_1909
REMARK  1075  A    between atoms: CA_1908  and  CB_1911
REMARK  1076  A    between atoms: CB_1911  and  CG1_1912
REMARK  1077  A    between atoms: CB_1911  and  CG2_1913
REMARK  1078  A    between atoms: CG1_1912  and  CD1_1914
REMARK  1079  A    between atoms: N_1915  and  CA_1916
REMARK  1080  A    between atoms: CA_1916  and  C_1917
REMARK  1081  A    between atoms: CA_1916  and  CB_1919
REMARK  1082  A    between atoms: CB_1919  and  OG_1920
REMARK  1083  A    between atoms: N_1921  and  CA_1922
REMARK  1084  A    between atoms: CA_1922  and  C_1923
REMARK  1085  A    between atoms: CA_1922  and  CB_1925
REMARK  1086  A    between atoms: CB_1925  and  CG_1926
REMARK  1087  A    between atoms: CG_1926  and  CD_1927
REMARK  1088  A    between atoms: CD_1927  and  NE_1928
REMARK  1089  A    between atoms: N_1932  and  CA_1933
REMARK  1090  A    between atoms: CA_1933  and  C_1934
REMARK  1091  A    between atoms: CA_1933  and  CB_1936
REMARK  1092  A    between atoms: CB_1936  and  CG_1937
REMARK  1093  A    between atoms: CG_1937  and  CD2_1938
REMARK  1094  A    between atoms: CG_1937  and  CD1_1939
REMARK  1095  A    between atoms: N_1940  and  CA_1941
REMARK  1096  A    between atoms: CA_1941  and  C_1942
REMARK  1097  A    between atoms: CA_1941  and  CB_1944
REMARK  1098  A    between atoms: CB_1944  and  CG_1945
REMARK  1099  A    between atoms: CG_1945  and  CD2_1946
REMARK  1100  A    between atoms: CG_1945  and  CD1_1947
REMARK  1101  A    between atoms: N_1948  and  CA_1949
REMARK  1102  A    between atoms: CA_1949  and  C_1950
REMARK  1103  A    between atoms: CA_1949  and  CB_1952
REMARK  1104  A    between atoms: CB_1952  and  CG_1953
REMARK  1105  A    between atoms: CG_1953  and  CD_1954
REMARK  1106  A    between atoms: CD_1954  and  CE_1955
REMARK  1107  A    between atoms: CE_1955  and  NZ_1956
REMARK  1108  A    between atoms: N_1957  and  CA_1958
REMARK  1109  A    between atoms: CA_1958  and  C_1959
REMARK  1110  A    between atoms: CA_1958  and  CB_1961
REMARK  1111  A    between atoms: CB_1961  and  CG_1962
REMARK  1112  A    between atoms: N_1967  and  CA_1968
REMARK  1113  A    between atoms: CA_1968  and  C_1969
REMARK  1114  A    between atoms: CA_1968  and  CB_1971
REMARK  1115  A    between atoms: CB_1971  and  CG_1972
REMARK  1116  A    between atoms: CA_1976  and  C_1977
REMARK  1117  A    between atoms: N_1982  and  C_1983
REMARK  1118  A    between atoms: C_1983  and  C_1984
REMARK  1119  A    between atoms: C_1983  and  C_1986
REMARK  1120  A    between atoms: C_1986  and  O_1987
REMARK  1121  A    between atoms: N_1988  and  C_1989
REMARK  1122  A    between atoms: C_1989  and  C_1990
REMARK  1123  A    between atoms: C_1989  and  C_1992
REMARK  1124  A    between atoms: C_1992  and  C_1993
REMARK  1125  A    between atoms: C_1993  and  C_1994
REMARK  1126  A    between atoms: N_1997  and  C_1998
REMARK  1127  A    between atoms: C_1998  and  C_1999
REMARK  1128  A    between atoms: C_1998  and  C_2001
REMARK  1129  A    between atoms: C_2001  and  C_2002
REMARK  1130  A    between atoms: C_2002  and  C_2003
REMARK  1131  A    between atoms: C_2003  and  N_2004
REMARK  1132  A    between atoms: C_2009  and  C_2010
REMARK  1133  A    between atoms: N_2015  and  C_2017
REMARK  1134  A    between atoms: C_2016  and  C_2018
REMARK  1135  A    between atoms: C_2016  and  C_2021
REMARK  1136  A    between atoms: C_2021  and  C_2022
REMARK  1137  A    between atoms: C_2022  and  C_2023
REMARK  1138  A    between atoms: C_2023  and  S_2024
REMARK  1139  A    between atoms: C_2023  and  S_2025
REMARK  1140  A    between atoms: S_2024  and  C_2026
REMARK  1141  A    between atoms: S_2025  and  C_2027
REMARK  1142  A    between atoms: N_2028  and  CA_2029
REMARK  1143  A    between atoms: CA_2029  and  C_2030
REMARK  1144  A    between atoms: CA_2029  and  CB_2032
REMARK  1145  A    between atoms: CB_2032  and  CG_2033
REMARK  1146  A    between atoms: CG_2033  and  CD1_2034
REMARK  1147  A    between atoms: CG_2033  and  CD2_2035
REMARK  1148  A    between atoms: N_2036  and  CA_2037
REMARK  1149  A    between atoms: CA_2037  and  C_2038
REMARK  1150  A    between atoms: CA_2037  and  CB_2040
REMARK  1151  A    between atoms: N_2041  and  CA_2042
REMARK  1152  A    between atoms: CA_2042  and  C_2043
REMARK  1153  A    between atoms: CA_2042  and  CB_2045
REMARK  1154  A    between atoms: CB_2045  and  CG_2046
REMARK  1155  A    between atoms: CG_2046  and  CD_2047
REMARK  1156  A    between atoms: N_2050  and  CA_2051
REMARK  1157  A    between atoms: CA_2051  and  C_2052
REMARK  1158  A    between atoms: CA_2051  and  CB_2054
REMARK  1159  A    between atoms: CB_2054  and  CG2_2055
REMARK  1160  A    between atoms: CB_2054  and  CG1_2056
REMARK  1161  A    between atoms: N_2057  and  CA_2058
REMARK  1162  A    between atoms: CA_2058  and  C_2059
REMARK  1163  A    between atoms: CA_2058  and  CB_2061
REMARK  1164  A    between atoms: CB_2061  and  CG_2062
REMARK  1165  A    between atoms: CG_2062  and  CD1_2063
REMARK  1166  A    between atoms: CG_2062  and  CD2_2064
REMARK  1167  A    between atoms: N_2065  and  CA_2066
REMARK  1168  A    between atoms: CA_2066  and  C_2067
REMARK  1169  A    between atoms: CA_2066  and  CB_2069
REMARK  1170  A    between atoms: CB_2069  and  CG_2070
REMARK  1171  A    between atoms: CG_2070  and  CD_2071
REMARK  1172  A    between atoms: N_2074  and  CA_2075
REMARK  1173  A    between atoms: CA_2075  and  C_2076
REMARK  1174  A    between atoms: CA_2075  and  CB_2078
REMARK  1175  A    between atoms: CB_2078  and  CG_2079
REMARK  1176  A    between atoms: CA_2085  and  C_2086
REMARK  1177  A    between atoms: N_2091  and  CA_2092
REMARK  1178  A    between atoms: CA_2092  and  C_2093
REMARK  1179  A    between atoms: CA_2092  and  CB_2095
REMARK  1180  A    between atoms: CB_2095  and  CG_2096
REMARK  1181  A    between atoms: N_2105  and  CA_2106
REMARK  1182  A    between atoms: CA_2106  and  C_2107
REMARK  1183  A    between atoms: CA_2106  and  CB_2109
REMARK  1184  A    between atoms: CB_2109  and  CG1_2110
REMARK  1185  A    between atoms: CB_2109  and  CG2_2111
REMARK  1186  A    between atoms: CG1_2110  and  CD1_2112
REMARK  1187  A    between atoms: N_2113  and  CA_2114
REMARK  1188  A    between atoms: CA_2114  and  C_2115
REMARK  1189  A    between atoms: CA_2114  and  CB_2117
REMARK  1190  A    between atoms: CB_2117  and  OG1_2118
REMARK  1191  A    between atoms: CB_2117  and  CG2_2119
REMARK  1192  A    between atoms: N_2120  and  CA_2121
REMARK  1193  A    between atoms: CA_2121  and  C_2122
REMARK  1194  A    between atoms: CA_2121  and  CB_2124
REMARK  1195  A    between atoms: N_2125  and  CA_2126
REMARK  1196  A    between atoms: CA_2126  and  C_2127
REMARK  1197  A    between atoms: CA_2126  and  CB_2129
REMARK  1198  A    between atoms: CB_2129  and  CG_2130
REMARK  1199  A    between atoms: N_2133  and  CA_2134
REMARK  1200  A    between atoms: CA_2134  and  C_2135
REMARK  1201  A    between atoms: CA_2134  and  CB_2137
REMARK  1202  A    between atoms: CB_2137  and  OG_2138
REMARK  1203  A    between atoms: N_2139  and  CA_2140
REMARK  1204  A    between atoms: CA_2140  and  C_2141
REMARK  1205  A    between atoms: CA_2140  and  CB_2143
REMARK  1206  A    between atoms: CB_2143  and  OG_2144
REMARK  1207  A    between atoms: N_2145  and  C_2146
REMARK  1208  A    between atoms: C_2146  and  C_2147
REMARK  1209  A    between atoms: C_2146  and  C_2149
REMARK  1210  A    between atoms: C_2149  and  C_2150
REMARK  1211  A    between atoms: N_2151  and  CA_2152
REMARK  1212  A    between atoms: CA_2152  and  C_2153
REMARK  1213  A    between atoms: CA_2152  and  CB_2155
REMARK  1214  A    between atoms: CB_2155  and  OG_2156
REMARK  1215  A    between atoms: N_2157  and  CA_2158
REMARK  1216  A    between atoms: CA_2158  and  C_2159
REMARK  1217  A    between atoms: CA_2158  and  CB_2161
REMARK  1218  A    between atoms: CB_2161  and  CG_2162
REMARK  1219  A    between atoms: CG_2162  and  CD_2163
REMARK  1220  A    between atoms: CA_2167  and  C_2168
REMARK  1221  A    between atoms: CA_2174  and  C_2175
REMARK  1222  A    between atoms: N_2180  and  CA_2181
REMARK  1223  A    between atoms: CA_2181  and  C_2182
REMARK  1224  A    between atoms: CA_2181  and  CB_2184
REMARK  1225  A    between atoms: CB_2184  and  OG_2185
REMARK  1226  A    between atoms: N_2186  and  CA_2187
REMARK  1227  A    between atoms: CA_2187  and  C_2188
REMARK  1228  A    between atoms: CA_2187  and  CB_2190
REMARK  1229  A    between atoms: CB_2190  and  CG_2191
REMARK  1230  A    between atoms: N_2200  and  CA_2201
REMARK  1231  A    between atoms: CA_2201  and  C_2202
REMARK  1232  A    between atoms: CA_2201  and  CB_2204
REMARK  1233  A    between atoms: CB_2204  and  CG2_2205
REMARK  1234  A    between atoms: CB_2204  and  CG1_2206
REMARK  1235  A    between atoms: N_2207  and  CA_2208
REMARK  1236  A    between atoms: CA_2208  and  C_2209
REMARK  1237  A    between atoms: CA_2208  and  CB_2211
REMARK  1238  A    between atoms: CB_2211  and  OG1_2212
REMARK  1239  A    between atoms: CB_2211  and  CG2_2213
REMARK  1240  A    between atoms: N_2214  and  CA_2215
REMARK  1241  A    between atoms: CA_2215  and  C_2216
REMARK  1242  A    between atoms: CA_2215  and  CB_2218
REMARK  1243  A    between atoms: CB_2218  and  CG_2219
REMARK  1244  A    between atoms: CG_2219  and  CD_2220
REMARK  1245  A    between atoms: N_2223  and  CA_2224
REMARK  1246  A    between atoms: CA_2224  and  C_2225
REMARK  1247  A    between atoms: CA_2224  and  CB_2227
REMARK  1248  A    between atoms: CB_2227  and  CG_2228
REMARK  1249  A    between atoms: CG_2228  and  SD_2229
REMARK  1250  A    between atoms: SD_2229  and  CE_2230
REMARK  1251  A    between atoms: N_2231  and  CA_2232
REMARK  1252  A    between atoms: CA_2232  and  C_2233
REMARK  1253  A    between atoms: CA_2232  and  CB_2235
REMARK  1254  A    between atoms: CB_2235  and  CG_2236
REMARK  1255  A    between atoms: CG_2236  and  CD1_2237
REMARK  1256  A    between atoms: CG_2236  and  CD2_2238
REMARK  1257  A    between atoms: N_2239  and  CA_2240
REMARK  1258  A    between atoms: CA_2240  and  C_2241
REMARK  1259  A    between atoms: CA_2240  and  CB_2243
REMARK  1260  A    between atoms: CB_2243  and  CG_2244
REMARK  1261  A    between atoms: CG_2244  and  CD1_2245
REMARK  1262  A    between atoms: CG_2244  and  CD2_2246
REMARK  1263  A    between atoms: N_2247  and  CA_2248
REMARK  1264  A    between atoms: CA_2248  and  C_2249
REMARK  1265  A    between atoms: CA_2248  and  CB_2251
REMARK  1266  A    between atoms: CB_2251  and  CG_2252
REMARK  1267  A    between atoms: CG_2252  and  CD_2253
REMARK  1268  A    between atoms: N_2256  and  CA_2257
REMARK  1269  A    between atoms: CA_2257  and  C_2258
REMARK  1270  A    between atoms: CA_2257  and  CB_2260
REMARK  1271  A    between atoms: CB_2260  and  CG_2261
REMARK  1272  A    between atoms: CG_2261  and  CD_2262
REMARK  1273  A    between atoms: CD_2262  and  CE_2263
REMARK  1274  A    between atoms: CE_2263  and  NZ_2264
REMARK  1275  A    between atoms: N_2265  and  C_2266
REMARK  1276  A    between atoms: C_2266  and  C_2267
REMARK  1277  A    between atoms: C_2266  and  C_2269
REMARK  1278  A    between atoms: C_2269  and  C_2270
REMARK  1279  A    between atoms: N_2271  and  CA_2272
REMARK  1280  A    between atoms: CA_2272  and  C_2273
REMARK  1281  A    between atoms: CA_2272  and  CB_2275
REMARK  1282  A    between atoms: CB_2275  and  CG_2276
REMARK  1283  A    between atoms: CG_2276  and  CD2_2277
REMARK  1284  A    between atoms: CG_2276  and  CD1_2278
REMARK  1285  A    between atoms: N_2279  and  CA_2280
REMARK  1286  A    between atoms: CA_2280  and  C_2281
REMARK  1287  A    between atoms: CA_2280  and  CB_2283
REMARK  1288  A    between atoms: CB_2283  and  CG_2284
REMARK  1289  A    between atoms: N_2293  and  CA_2294
REMARK  1290  A    between atoms: CA_2294  and  C_2295
REMARK                            x       y       z     vdW  Elec       q    Type
REMARK                         _______ _______ _______ _____ _____    ______ ____
ROOT
ATOM      1  C   UNL     4     -45.930  38.195  -9.416  0.00  0.00    +0.018 C 
ATOM      2  C   UNL     4     -45.998  39.225 -10.557  0.00  0.00    +0.018 C 
ATOM      3  C   UNL     4     -46.446  39.288 -10.310  0.00  0.00    +0.038 C 
ATOM      4  C   UNL     4     -47.202  40.154 -10.454  0.00  0.00    +0.191 C 
ATOM      5  C   UNL     4     -47.962  39.353 -10.292  0.00  0.00    +0.191 C 
ENDROOT
BRANCH   4   6
ATOM      6  N   UNL     4     -47.124  41.243 -11.426  0.00  0.00    -0.272 N 
ATOM      7  C   UNL     4     -47.191  42.534 -11.124  0.00  0.00    +0.341 C 
ATOM      8  N   UNL     4     -47.403  42.947  -9.884  0.00  0.00    -0.292 N 
ATOM      9  N   UNL     4     -47.042  43.432 -12.093  0.00  0.00    -0.292 N 
ATOM     10  H   UNL     4     -47.014  41.001 -12.374  0.00  0.00    +0.258 HD
ATOM     11  H   UNL     4     -47.448  43.911  -9.687  0.00  0.00    +0.255 HD
ATOM     12  H   UNL     4     -47.515  42.291  -9.159  0.00  0.00    +0.255 HD
ATOM     13  H   UNL     4     -46.884  43.136 -13.019  0.00  0.00    +0.255 HD
ATOM     14  H   UNL     4     -47.090  44.393 -11.885  0.00  0.00    +0.255 HD
ENDBRANCH   4   6
BRANCH   5  15
ATOM     15  N   UNL     4     -48.484  39.806  -9.007  0.00  0.00    -0.272 N 
ATOM     16  C   UNL     4     -49.731  39.616  -8.595  0.00  0.00    +0.341 C 
ATOM     17  N   UNL     4     -50.615  38.967  -9.338  0.00  0.00    -0.292 N 
ATOM     18  N   UNL     4     -50.104  40.100  -7.414  0.00  0.00    -0.292 N 
ATOM     19  H   UNL     4     -47.870  40.285  -8.405  0.00  0.00    +0.258 HD
ATOM     20  H   UNL     4     -50.350  38.604 -10.214  0.00  0.00    +0.255 HD
ATOM     21  H   UNL     4     -51.537  38.847  -9.014  0.00  0.00    +0.255 HD
ATOM     22  H   UNL     4     -51.026  39.966  -7.096  0.00  0.00    +0.255 HD
ATOM     23  H   UNL     4     -49.458  40.592  -6.857  0.00  0.00    +0.255 HD
ENDBRANCH   5  15
TORSDOF 2
REMARK  Name = /Users/wangyang/Desktop/Breast_cancer_brain_metastasis/wang_Gene/AIDD/15_Protein_ligand_docking/data_7ztl/protein.pdb
REMARK  1290 active torsions:
REMARK  status: ('A' for Active; 'I' for Inactive)
REMARK    1  A    between atoms: N_1  and  CA_2
REMARK    2  A    between atoms: CA_2  and  C_3
REMARK    3  A    between atoms: N_5  and  CA_6
REMARK    4  A    between atoms: CA_6  and  C_7
REMARK    5  A    between atoms: CA_6  and  CB_9
REMARK    6  A    between atoms: N_10  and  CA_11
REMARK    7  A    between atoms: CA_11  and  C_12
REMARK    8  A    between atoms: CA_11  and  CB_14
REMARK    9  A    between atoms: CB_14  and  CG_15
REMARK   10  A    between atoms: N_24  and  CA_25
REMARK   11  A    between atoms: CA_25  and  C_26
REMARK   12  A    between atoms: CA_25  and  CB_28
REMARK   13  A    between atoms: N_29  and  CA_30
REMARK   14  A    between atoms: CA_30  and  C_31
REMARK   15  A    between atoms: CA_30  and  CB_33
REMARK   16  A    between atoms: CB_33  and  CG_34
REMARK   17  A    between atoms: CG_34  and  CD1_35
REMARK   18  A    between atoms: CG_34  and  CD2_36
REMARK   19  A    between atoms: N_37  and  CA_38
REMARK   20  A    between atoms: CA_38  and  C_39
REMARK   21  A    between atoms: CA_38  and  CB_41
REMARK   22  A    between atoms: CB_41  and  CG_42
REMARK   23  A    between atoms: CG_42  and  CD_43
REMARK   24  A    between atoms: N_46  and  CA_47
REMARK   25  A    between atoms: CA_47  and  C_48
REMARK   26  A    between atoms: CA_47  and  CB_50
REMARK   27  A    between atoms: CB_50  and  CG_51
REMARK   28  A    between atoms: N_54  and  CA_55
REMARK   29  A    between atoms: CA_55  and  C_56
REMARK   30  A    between atoms: CA_55  and  CB_58
REMARK   31  A    between atoms: CB_58  and  CG_59
REMARK   32  A    between atoms: N_65  and  CA_66
REMARK   33  A    between atoms: CA_66  and  C_67
REMARK   34  A    between atoms: CA_66  and  CB_69
REMARK   35  A    between atoms: CB_69  and  CG_70
REMARK   36  A    between atoms: CG_70  and  CD_71
REMARK   37  A    between atoms: N_74  and  CA_75
REMARK   38  A    between atoms: CA_75  and  C_76
REMARK   39  A    between atoms: CA_75  and  CB_78
REMARK   40  A    between atoms: CB_78  and  CG1_79
REMARK   41  A    between atoms: CB_78  and  CG2_80
REMARK   42  A    between atoms: CG1_79  and  CD1_81
REMARK   43  A    between atoms: N_82  and  CA_83
REMARK   44  A    between atoms: CA_83  and  C_84
REMARK   45  A    between atoms: N_86  and  CA_87
REMARK   46  A    between atoms: CA_87  and  C_88
REMARK   47  A    between atoms: CA_87  and  CB_90
REMARK   48  A    between atoms: CB_90  and  CG_91
REMARK   49  A    between atoms: CG_91  and  CD_92
REMARK   50  A    between atoms: CD_92  and  NE_93
REMARK   51  A    between atoms: CA_98  and  C_99
REMARK   52  A    between atoms: N_104  and  CA_105
REMARK   53  A    between atoms: CA_105  and  C_106
REMARK   54  A    between atoms: CA_105  and  CB_108
REMARK   55  A    between atoms: CB_108  and  CG_109
REMARK   56  A    between atoms: CG_109  and  CD1_110
REMARK   57  A    between atoms: CG_109  and  CD2_111
REMARK   58  A    between atoms: N_112  and  CA_113
REMARK   59  A    between atoms: CA_113  and  C_114
REMARK   60  A    between atoms: N_116  and  C_117
REMARK   61  A    between atoms: C_117  and  C_118
REMARK   62  A    between atoms: C_117  and  C_120
REMARK   63  A    between atoms: C_120  and  C_121
REMARK   64  A    between atoms: C_121  and  C_122
REMARK   65  A    between atoms: N_123  and  CA_124
REMARK   66  A    between atoms: CA_124  and  C_125
REMARK   67  A    between atoms: N_127  and  CA_128
REMARK   68  A    between atoms: CA_128  and  C_129
REMARK   69  A    between atoms: CA_128  and  CB_131
REMARK   70  A    between atoms: CB_131  and  CG_132
REMARK   71  A    between atoms: CG_132  and  CD_133
REMARK   72  A    between atoms: CD_133  and  CE_134
REMARK   73  A    between atoms: CE_134  and  NZ_135
REMARK   74  A    between atoms: N_136  and  CA_137
REMARK   75  A    between atoms: CA_137  and  C_138
REMARK   76  A    between atoms: CA_137  and  CB_140
REMARK   77  A    between atoms: CB_140  and  CG_141
REMARK   78  A    between atoms: N_147  and  CA_148
REMARK   79  A    between atoms: CA_148  and  C_149
REMARK   80  A    between atoms: N_151  and  CA_152
REMARK   81  A    between atoms: CA_152  and  C_153
REMARK   82  A    between atoms: CA_152  and  CB_155
REMARK   83  A    between atoms: CB_155  and  CG_156
REMARK   84  A    between atoms: N_159  and  CA_160
REMARK   85  A    between atoms: CA_160  and  C_161
REMARK   86  A    between atoms: CA_160  and  CB_163
REMARK   87  A    between atoms: CB_163  and  CG1_164
REMARK   88  A    between atoms: CB_163  and  CG2_165
REMARK   89  A    between atoms: N_166  and  CA_167
REMARK   90  A    between atoms: CA_167  and  C_168
REMARK   91  A    between atoms: CA_167  and  CB_170
REMARK   92  A    between atoms: CB_170  and  CG_171
REMARK   93  A    between atoms: CZ_176  and  OH_177
REMARK   94  A    between atoms: N_178  and  CA_179
REMARK   95  A    between atoms: CA_179  and  C_180
REMARK   96  A    between atoms: CA_179  and  CB_182
REMARK   97  A    between atoms: CB_182  and  CG_183
REMARK   98  A    between atoms: CG_183  and  CD1_184
REMARK   99  A    between atoms: CG_183  and  CD2_185
REMARK  100  A    between atoms: N_186  and  CA_187
REMARK  101  A    between atoms: CA_187  and  C_188
REMARK  102  A    between atoms: CA_187  and  CB_190
REMARK  103  A    between atoms: N_191  and  CA_192
REMARK  104  A    between atoms: CA_192  and  C_193
REMARK  105  A    between atoms: CA_192  and  CB_195
REMARK  106  A    between atoms: CB_195  and  CG_196
REMARK  107  A    between atoms: CG_196  and  CD_197
REMARK  108  A    between atoms: CD_197  and  NE_198
REMARK  109  A    between atoms: N_202  and  CA_203
REMARK  110  A    between atoms: CA_203  and  C_204
REMARK  111  A    between atoms: CA_203  and  CB_206
REMARK  112  A    between atoms: CB_206  and  CG_207
REMARK  113  A    between atoms: CG_207  and  CD_208
REMARK  114  A    between atoms: N_211  and  CA_212
REMARK  115  A    between atoms: CA_212  and  C_213
REMARK  116  A    between atoms: CA_212  and  CB_215
REMARK  117  A    between atoms: CB_215  and  CG_216
REMARK  118  A    between atoms: CG_216  and  CD_217
REMARK  119  A    between atoms: CD_217  and  CE_218
REMARK  120  A    between atoms: CE_218  and  NZ_219
REMARK  121  A    between atoms: N_220  and  CA_221
REMARK  122  A    between atoms: CA_221  and  C_222
REMARK  123  A    between atoms: CA_221  and  CB_224
REMARK  124  A    between atoms: N_225  and  CA_226
REMARK  125  A    between atoms: CA_226  and  C_227
REMARK  126  A    between atoms: CA_226  and  CB_229
REMARK  127  A    between atoms: CB_229  and  OG_230
REMARK  128  A    between atoms: N_231  and  CA_232
REMARK  129  A    between atoms: CA_232  and  C_233
REMARK  130  A    between atoms: CA_232  and  CB_235
REMARK  131  A    between atoms: CB_235  and  CG_236
REMARK  132  A    between atoms: CG_236  and  CD_237
REMARK  133  A    between atoms: CD_237  and  CE_238
REMARK  134  A    between atoms: CE_238  and  NZ_239
REMARK  135  A    between atoms: N_240  and  CA_241
REMARK  136  A    between atoms: CA_241  and  C_242
REMARK  137  A    between atoms: CA_241  and  CB_244
REMARK  138  A    between atoms: CB_244  and  CG_245
REMARK  139  A    between atoms: N_251  and  CA_252
REMARK  140  A    between atoms: CA_252  and  C_253
REMARK  141  A    between atoms: CA_252  and  CB_255
REMARK  142  A    between atoms: CB_255  and  CG1_256
REMARK  143  A    between atoms: CB_255  and  CG2_257
REMARK  144  A    between atoms: CG1_256  and  CD1_258
REMARK  145  A    between atoms: N_259  and  CA_260
REMARK  146  A    between atoms: CA_260  and  C_261
REMARK  147  A    between atoms: CA_260  and  CB_263
REMARK  148  A    between atoms: CB_263  and  CG_264
REMARK  149  A    between atoms: CG_264  and  CD1_265
REMARK  150  A    between atoms: CG_264  and  CD2_266
REMARK  151  A    between atoms: N_267  and  CA_268
REMARK  152  A    between atoms: CA_268  and  C_269
REMARK  153  A    between atoms: CA_268  and  CB_271
REMARK  154  A    between atoms: N_272  and  CA_273
REMARK  155  A    between atoms: CA_273  and  C_274
REMARK  156  A    between atoms: CA_273  and  CB_276
REMARK  157  A    between atoms: CB_276  and  CG_277
REMARK  158  A    between atoms: CG_277  and  CD2_278
REMARK  159  A    between atoms: CG_277  and  CD1_279
REMARK  160  A    between atoms: N_280  and  CA_281
REMARK  161  A    between atoms: CA_281  and  C_282
REMARK  162  A    between atoms: CA_281  and  CB_284
REMARK  163  A    between atoms: CB_284  and  CG_285
REMARK  164  A    between atoms: CG_285  and  CD_286
REMARK  165  A    between atoms: CD_286  and  CE_287
REMARK  166  A    between atoms: CE_287  and  NZ_288
REMARK  167  A    between atoms: N_289  and  CA_290
REMARK  168  A    between atoms: CA_290  and  C_291
REMARK  169  A    between atoms: CA_290  and  CB_293
REMARK  170  A    between atoms: CB_293  and  CG2_294
REMARK  171  A    between atoms: CB_293  and  CG1_295
REMARK  172  A    between atoms: N_296  and  CA_297
REMARK  173  A    between atoms: CA_297  and  C_298
REMARK  174  A    between atoms: CA_297  and  CB_300
REMARK  175  A    between atoms: CB_300  and  CG_301
REMARK  176  A    between atoms: CG_301  and  CD1_302
REMARK  177  A    between atoms: CG_301  and  CD2_303
REMARK  178  A    between atoms: N_304  and  CA_305
REMARK  179  A    between atoms: CA_305  and  C_306
REMARK  180  A    between atoms: CA_305  and  CB_308
REMARK  181  A    between atoms: CB_308  and  CG_309
REMARK  182  A    between atoms: N_315  and  CA_316
REMARK  183  A    between atoms: CA_316  and  C_317
REMARK  184  A    between atoms: CA_316  and  CB_319
REMARK  185  A    between atoms: CB_319  and  CG_320
REMARK  186  A    between atoms: CG_320  and  CD_321
REMARK  187  A    between atoms: CD_321  and  CE_322
REMARK  188  A    between atoms: CE_322  and  NZ_323
REMARK  189  A    between atoms: N_324  and  CA_325
REMARK  190  A    between atoms: CA_325  and  C_326
REMARK  191  A    between atoms: CA_325  and  CB_328
REMARK  192  A    between atoms: N_329  and  CA_330
REMARK  193  A    between atoms: CA_330  and  C_331
REMARK  194  A    between atoms: CA_330  and  CB_333
REMARK  195  A    between atoms: CB_333  and  CG_334
REMARK  196  A    between atoms: CG_334  and  CD_335
REMARK  197  A    between atoms: N_338  and  CA_339
REMARK  198  A    between atoms: CA_339  and  C_340
REMARK  199  A    between atoms: CA_339  and  CB_342
REMARK  200  A    between atoms: CB_342  and  CG_343
REMARK  201  A    between atoms: CG_343  and  CD1_344
REMARK  202  A    between atoms: CG_343  and  CD2_345
REMARK  203  A    between atoms: N_346  and  CA_347
REMARK  204  A    between atoms: CA_347  and  C_348
REMARK  205  A    between atoms: CA_347  and  CB_350
REMARK  206  A    between atoms: CB_350  and  CG_351
REMARK  207  A    between atoms: CG_351  and  CD_352
REMARK  208  A    between atoms: N_355  and  C_356
REMARK  209  A    between atoms: C_356  and  C_357
REMARK  210  A    between atoms: C_356  and  C_359
REMARK  211  A    between atoms: C_359  and  C_360
REMARK  212  A    between atoms: N_361  and  CA_362
REMARK  213  A    between atoms: CA_362  and  C_363
REMARK  214  A    between atoms: CA_362  and  CB_365
REMARK  215  A    between atoms: N_366  and  CA_367
REMARK  216  A    between atoms: CA_367  and  C_368
REMARK  217  A    between atoms: N_370  and  CA_371
REMARK  218  A    between atoms: CA_371  and  C_372
REMARK  219  A    between atoms: CA_371  and  CB_374
REMARK  220  A    between atoms: CB_374  and  CG2_375
REMARK  221  A    between atoms: CB_374  and  CG1_376
REMARK  222  A    between atoms: N_377  and  CA_378
REMARK  223  A    between atoms: CA_378  and  C_379
REMARK  224  A    between atoms: CA_378  and  CB_381
REMARK  225  A    between atoms: CB_381  and  CG_382
REMARK  226  A    between atoms: CG_382  and  CD_383
REMARK  227  A    between atoms: N_386  and  CA_387
REMARK  228  A    between atoms: CA_387  and  C_388
REMARK  229  A    between atoms: CA_387  and  CB_390
REMARK  230  A    between atoms: CB_390  and  CG_391
REMARK  231  A    between atoms: N_396  and  CA_397
REMARK  232  A    between atoms: CA_397  and  C_398
REMARK  233  A    between atoms: CA_397  and  CB_400
REMARK  234  A    between atoms: CB_400  and  CG_401
REMARK  235  A    between atoms: CG_401  and  CD_402
REMARK  236  A    between atoms: N_405  and  CA_406
REMARK  237  A    between atoms: CA_406  and  C_407
REMARK  238  A    between atoms: CA_406  and  CB_409
REMARK  239  A    between atoms: CB_409  and  CG_410
REMARK  240  A    between atoms: CG_410  and  CD2_411
REMARK  241  A    between atoms: CG_410  and  CD1_412
REMARK  242  A    between atoms: N_413  and  CA_414
REMARK  243  A    between atoms: CA_414  and  C_415
REMARK  244  A    between atoms: CA_414  and  CB_417
REMARK  245  A    between atoms: CB_417  and  CG_418
REMARK  246  A    between atoms: CG_418  and  CD_419
REMARK  247  A    between atoms: CD_419  and  NE_420
REMARK  248  A    between atoms: N_424  and  CA_425
REMARK  249  A    between atoms: CA_425  and  C_426
REMARK  250  A    between atoms: CA_425  and  CB_428
REMARK  251  A    between atoms: CB_428  and  CG_429
REMARK  252  A    between atoms: CG_429  and  CD_430
REMARK  253  A    between atoms: CD_430  and  NE_431
REMARK  254  A    between atoms: N_435  and  CA_436
REMARK  255  A    between atoms: CA_436  and  C_437
REMARK  256  A    between atoms: CA_436  and  CB_439
REMARK  257  A    between atoms: CB_439  and  CG_440
REMARK  258  A    between atoms: CG_440  and  CD_441
REMARK  259  A    between atoms: N_444  and  CA_445
REMARK  260  A    between atoms: CA_445  and  C_446
REMARK  261  A    between atoms: CA_445  and  CB_448
REMARK  262  A    between atoms: CB_448  and  CG1_449
REMARK  263  A    between atoms: CB_448  and  CG2_450
REMARK  264  A    between atoms: N_451  and  C_452
REMARK  265  A    between atoms: C_452  and  C_453
REMARK  266  A    between atoms: C_452  and  C_455
REMARK  267  A    between atoms: C_455  and  C_456
REMARK  268  A    between atoms: N_457  and  CA_458
REMARK  269  A    between atoms: CA_458  and  C_459
REMARK  270  A    between atoms: CA_458  and  CB_461
REMARK  271  A    between atoms: CB_461  and  CG1_462
REMARK  272  A    between atoms: CB_461  and  CG2_463
REMARK  273  A    between atoms: CG1_462  and  CD1_464
REMARK  274  A    between atoms: N_465  and  CA_466
REMARK  275  A    between atoms: CA_466  and  C_467
REMARK  276  A    between atoms: CA_466  and  CB_469
REMARK  277  A    between atoms: CB_469  and  CG_470
REMARK  278  A    between atoms: CG_470  and  CD_471
REMARK  279  A    between atoms: N_474  and  C_475
REMARK  280  A    between atoms: C_475  and  C_476
REMARK  281  A    between atoms: C_475  and  C_478
REMARK  282  A    between atoms: C_478  and  O_479
REMARK  283  A    between atoms: N_480  and  C_481
REMARK  284  A    between atoms: C_481  and  C_482
REMARK  285  A    between atoms: C_481  and  C_484
REMARK  286  A    between atoms: C_484  and  C_485
REMARK  287  A    between atoms: N_490  and  C_491
REMARK  288  A    between atoms: C_491  and  C_492
REMARK  289  A    between atoms: C_491  and  C_494
REMARK  290  A    between atoms: C_494  and  C_495
REMARK  291  A    between atoms: C_495  and  C_496
REMARK  292  A    between atoms: C_495  and  C_497
REMARK  293  A    between atoms: N_498  and  C_499
REMARK  294  A    between atoms: C_499  and  C_500
REMARK  295  A    between atoms: C_499  and  C_502
REMARK  296  A    between atoms: C_502  and  C_503
REMARK  297  A    between atoms: C_503  and  C_504
REMARK  298  A    between atoms: C_504  and  N_505
REMARK  299  A    between atoms: N_509  and  C_510
REMARK  300  A    between atoms: C_510  and  C_511
REMARK  301  A    between atoms: C_510  and  C_513
REMARK  302  A    between atoms: C_513  and  C_514
REMARK  303  A    between atoms: C_520  and  C_521
REMARK  304  A    between atoms: N_526  and  C_527
REMARK  305  A    between atoms: C_527  and  C_528
REMARK  306  A    between atoms: C_527  and  C_530
REMARK  307  A    between atoms: C_530  and  C_531
REMARK  308  A    between atoms: N_534  and  C_535
REMARK  309  A    between atoms: C_535  and  C_536
REMARK  310  A    between atoms: C_535  and  C_538
REMARK  311  A    between atoms: C_538  and  C_539
REMARK  312  A    between atoms: C_538  and  C_540
REMARK  313  A    between atoms: C_539  and  C_541
REMARK  314  A    between atoms: N_542  and  C_543
REMARK  315  A    between atoms: C_543  and  C_544
REMARK  316  A    between atoms: C_543  and  C_546
REMARK  317  A    between atoms: C_546  and  C_547
REMARK  318  A    between atoms: C_547  and  C_548
REMARK  319  A    between atoms: C_547  and  C_549
REMARK  320  A    between atoms: N_550  and  C_551
REMARK  321  A    between atoms: C_551  and  C_552
REMARK  322  A    between atoms: C_551  and  C_554
REMARK  323  A    between atoms: C_554  and  C_555
REMARK  324  A    between atoms: C_555  and  C_556
REMARK  325  A    between atoms: C_556  and  N_557
REMARK  326  A    between atoms: N_561  and  C_562
REMARK  327  A    between atoms: C_562  and  C_567
REMARK  328  A    between atoms: C_563  and  C_564
REMARK  329  A    between atoms: C_568  and  C_569
REMARK  330  A    between atoms: C_568  and  C_571
REMARK  331  A    between atoms: C_569  and  C_572
REMARK  332  A    between atoms: C_569  and  C_573
REMARK  333  A    between atoms: C_570  and  C_573
REMARK  334  A    between atoms: N_574  and  CA_575
REMARK  335  A    between atoms: CA_575  and  C_576
REMARK  336  A    between atoms: CA_575  and  CB_578
REMARK  337  A    between atoms: CB_578  and  CG_579
REMARK  338  A    between atoms: CZ_584  and  OH_585
REMARK  339  A    between atoms: N_586  and  CA_587
REMARK  340  A    between atoms: CA_587  and  C_588
REMARK  341  A    between atoms: N_590  and  CA_591
REMARK  342  A    between atoms: CA_591  and  C_592
REMARK  343  A    between atoms: CA_591  and  CB_594
REMARK  344  A    between atoms: CB_594  and  CG_595
REMARK  345  A    between atoms: CZ_600  and  OH_601
REMARK  346  A    between atoms: N_602  and  CA_603
REMARK  347  A    between atoms: CA_603  and  C_604
REMARK  348  A    between atoms: CA_603  and  CB_606
REMARK  349  A    between atoms: CB_606  and  CG_607
REMARK  350  A    between atoms: N_613  and  CA_614
REMARK  351  A    between atoms: CA_614  and  C_615
REMARK  352  A    between atoms: CA_614  and  CB_617
REMARK  353  A    between atoms: CB_617  and  CG_618
REMARK  354  A    between atoms: N_623  and  CA_624
REMARK  355  A    between atoms: CA_624  and  C_625
REMARK  356  A    between atoms: CA_624  and  CB_627
REMARK  357  A    between atoms: CB_627  and  CG_628
REMARK  358  A    between atoms: N_631  and  CA_632
REMARK  359  A    between atoms: CA_632  and  C_633
REMARK  360  A    between atoms: CA_632  and  CB_635
REMARK  361  A    between atoms: N_636  and  CA_637
REMARK  362  A    between atoms: CA_637  and  C_638
REMARK  363  A    between atoms: CA_637  and  CB_640
REMARK  364  A    between atoms: CB_640  and  OG1_641
REMARK  365  A    between atoms: CB_640  and  CG2_642
REMARK  366  A    between atoms: N_643  and  CA_644
REMARK  367  A    between atoms: CA_644  and  C_645
REMARK  368  A    between atoms: CA_644  and  CB_647
REMARK  369  A    between atoms: CB_647  and  CG_648
REMARK  370  A    between atoms: CG_648  and  CD_649
REMARK  371  A    between atoms: CD_649  and  NE_650
REMARK  372  A    between atoms: N_654  and  CA_655
REMARK  373  A    between atoms: CA_655  and  C_656
REMARK  374  A    between atoms: CA_655  and  CB_658
REMARK  375  A    between atoms: CB_658  and  CG1_659
REMARK  376  A    between atoms: CB_658  and  CG2_660
REMARK  377  A    between atoms: N_661  and  CA_662
REMARK  378  A    between atoms: CA_662  and  C_663
REMARK  379  A    between atoms: CA_662  and  CB_665
REMARK  380  A    between atoms: CB_665  and  CG_666
REMARK  381  A    between atoms: CZ_671  and  OH_672
REMARK  382  A    between atoms: N_673  and  CA_674
REMARK  383  A    between atoms: CA_674  and  C_675
REMARK  384  A    between atoms: CA_674  and  CB_677
REMARK  385  A    between atoms: CB_677  and  CG_678
REMARK  386  A    between atoms: CG_678  and  CD2_679
REMARK  387  A    between atoms: CG_678  and  CD1_680
REMARK  388  A    between atoms: N_681  and  CA_682
REMARK  389  A    between atoms: CA_682  and  C_683
REMARK  390  A    between atoms: CA_682  and  CB_685
REMARK  391  A    between atoms: CB_685  and  CG1_686
REMARK  392  A    between atoms: CB_685  and  CG2_687
REMARK  393  A    between atoms: CG1_686  and  CD1_688
REMARK  394  A    between atoms: N_689  and  CA_690
REMARK  395  A    between atoms: CA_690  and  C_691
REMARK  396  A    between atoms: CA_690  and  CB_693
REMARK  397  A    between atoms: CB_693  and  CG_694
REMARK  398  A    between atoms: CG_694  and  CD2_695
REMARK  399  A    between atoms: CG_694  and  CD1_696
REMARK  400  A    between atoms: N_697  and  CA_698
REMARK  401  A    between atoms: CA_698  and  C_699
REMARK  402  A    between atoms: CA_698  and  CB_701
REMARK  403  A    between atoms: CB_701  and  CG_702
REMARK  404  A    between atoms: CG_702  and  CD_703
REMARK  405  A    between atoms: N_706  and  CA_707
REMARK  406  A    between atoms: CA_707  and  C_708
REMARK  407  A    between atoms: CA_707  and  CB_710
REMARK  408  A    between atoms: CB_710  and  CG_711
REMARK  409  A    between atoms: CZ_716  and  OH_717
REMARK  410  A    between atoms: N_718  and  CA_719
REMARK  411  A    between atoms: CA_719  and  C_720
REMARK  412  A    between atoms: CA_719  and  CB_722
REMARK  413  A    between atoms: CA_724  and  C_725
REMARK  414  A    between atoms: N_730  and  CA_731
REMARK  415  A    between atoms: CA_731  and  C_732
REMARK  416  A    between atoms: CA_731  and  CB_734
REMARK  417  A    between atoms: CB_734  and  CG_735
REMARK  418  A    between atoms: CG_735  and  CD1_736
REMARK  419  A    between atoms: CG_735  and  CD2_737
REMARK  420  A    between atoms: N_738  and  CA_739
REMARK  421  A    between atoms: CA_739  and  C_740
REMARK  422  A    between atoms: N_742  and  CA_743
REMARK  423  A    between atoms: CA_743  and  C_744
REMARK  424  A    between atoms: CA_743  and  CB_746
REMARK  425  A    between atoms: CB_746  and  OG1_747
REMARK  426  A    between atoms: CB_746  and  CG2_748
REMARK  427  A    between atoms: N_749  and  CA_750
REMARK  428  A    between atoms: CA_750  and  C_751
REMARK  429  A    between atoms: CA_750  and  CB_753
REMARK  430  A    between atoms: CB_753  and  CG2_754
REMARK  431  A    between atoms: CB_753  and  CG1_755
REMARK  432  A    between atoms: N_756  and  CA_757
REMARK  433  A    between atoms: CA_757  and  C_758
REMARK  434  A    between atoms: CA_757  and  CB_760
REMARK  435  A    between atoms: CB_760  and  CG_761
REMARK  436  A    between atoms: CZ_766  and  OH_767
REMARK  437  A    between atoms: N_768  and  C_769
REMARK  438  A    between atoms: C_769  and  C_770
REMARK  439  A    between atoms: C_769  and  C_772
REMARK  440  A    between atoms: C_772  and  C_773
REMARK  441  A    between atoms: N_774  and  CA_775
REMARK  442  A    between atoms: CA_775  and  C_776
REMARK  443  A    between atoms: CA_775  and  CB_778
REMARK  444  A    between atoms: CB_778  and  CG_779
REMARK  445  A    between atoms: CG_779  and  CD_780
REMARK  446  A    between atoms: N_783  and  CA_784
REMARK  447  A    between atoms: CA_784  and  C_785
REMARK  448  A    between atoms: CA_784  and  CB_787
REMARK  449  A    between atoms: CB_787  and  CG_788
REMARK  450  A    between atoms: CG_788  and  CD2_789
REMARK  451  A    between atoms: CG_788  and  CD1_790
REMARK  452  A    between atoms: N_791  and  CA_792
REMARK  453  A    between atoms: CA_792  and  C_793
REMARK  454  A    between atoms: CA_792  and  CB_795
REMARK  455  A    between atoms: CB_795  and  CG_796
REMARK  456  A    between atoms: CG_796  and  CD_797
REMARK  457  A    between atoms: N_800  and  CA_801
REMARK  458  A    between atoms: CA_801  and  C_802
REMARK  459  A    between atoms: CA_801  and  CB_804
REMARK  460  A    between atoms: CB_804  and  CG_805
REMARK  461  A    between atoms: CG_805  and  CD_806
REMARK  462  A    between atoms: CD_806  and  CE_807
REMARK  463  A    between atoms: CE_807  and  NZ_808
REMARK  464  A    between atoms: N_809  and  CA_810
REMARK  465  A    between atoms: CA_810  and  C_811
REMARK  466  A    between atoms: CA_810  and  CB_813
REMARK  467  A    between atoms: CB_813  and  CG_814
REMARK  468  A    between atoms: CG_814  and  CD1_815
REMARK  469  A    between atoms: CG_814  and  CD2_816
REMARK  470  A    between atoms: N_817  and  CA_818
REMARK  471  A    between atoms: CA_818  and  C_819
REMARK  472  A    between atoms: CA_818  and  CB_821
REMARK  473  A    between atoms: CB_821  and  OG_822
REMARK  474  A    between atoms: N_823  and  CA_824
REMARK  475  A    between atoms: CA_824  and  C_825
REMARK  476  A    between atoms: CA_824  and  CB_827
REMARK  477  A    between atoms: CB_827  and  CG_828
REMARK  478  A    between atoms: CG_828  and  CD_829
REMARK  479  A    between atoms: CD_829  and  CE_830
REMARK  480  A    between atoms: CE_830  and  NZ_831
REMARK  481  A    between atoms: N_832  and  CA_833
REMARK  482  A    between atoms: CA_833  and  C_834
REMARK  483  A    between atoms: CA_833  and  CB_836
REMARK  484  A    between atoms: CB_836  and  CG_837
REMARK  485  A    between atoms: N_843  and  CA_844
REMARK  486  A    between atoms: CA_844  and  C_845
REMARK  487  A    between atoms: CA_844  and  CB_847
REMARK  488  A    between atoms: CB_847  and  CG_848
REMARK  489  A    between atoms: N_851  and  CA_852
REMARK  490  A    between atoms: CA_852  and  C_853
REMARK  491  A    between atoms: CA_852  and  CB_855
REMARK  492  A    between atoms: CB_855  and  CG_856
REMARK  493  A    between atoms: CG_856  and  CD_857
REMARK  494  A    between atoms: N_860  and  CA_861
REMARK  495  A    between atoms: CA_861  and  C_862
REMARK  496  A    between atoms: CA_861  and  CB_864
REMARK  497  A    between atoms: CB_864  and  CG_865
REMARK  498  A    between atoms: CG_865  and  CD_866
REMARK  499  A    between atoms: N_869  and  CA_870
REMARK  500  A    between atoms: CA_870  and  C_871
REMARK  501  A    between atoms: CA_870  and  CB_873
REMARK  502  A    between atoms: CB_873  and  CG_874
REMARK  503  A    between atoms: CG_874  and  CD_875
REMARK  504  A    between atoms: CD_875  and  NE_876
REMARK  505  A    between atoms: N_880  and  CA_881
REMARK  506  A    between atoms: CA_881  and  C_882
REMARK  507  A    between atoms: CA_881  and  CB_884
REMARK  508  A    between atoms: CB_884  and  OG1_885
REMARK  509  A    between atoms: CB_884  and  CG2_886
REMARK  510  A    between atoms: N_887  and  CA_888
REMARK  511  A    between atoms: CA_888  and  C_889
REMARK  512  A    between atoms: CA_888  and  CB_891
REMARK  513  A    between atoms: N_892  and  CA_893
REMARK  514  A    between atoms: CA_893  and  C_894
REMARK  515  A    between atoms: CA_893  and  CB_896
REMARK  516  A    between atoms: CB_896  and  OG1_897
REMARK  517  A    between atoms: CB_896  and  CG2_898
REMARK  518  A    between atoms: N_899  and  CA_900
REMARK  519  A    between atoms: CA_900  and  C_901
REMARK  520  A    between atoms: CA_900  and  CB_903
REMARK  521  A    between atoms: CB_903  and  CG_904
REMARK  522  A    between atoms: CZ_909  and  OH_910
REMARK  523  A    between atoms: N_911  and  CA_912
REMARK  524  A    between atoms: CA_912  and  C_913
REMARK  525  A    between atoms: CA_912  and  CB_915
REMARK  526  A    between atoms: CB_915  and  CG1_916
REMARK  527  A    between atoms: CB_915  and  CG2_917
REMARK  528  A    between atoms: CG1_916  and  CD1_918
REMARK  529  A    between atoms: N_919  and  CA_920
REMARK  530  A    between atoms: CA_920  and  C_921
REMARK  531  A    between atoms: CA_920  and  CB_923
REMARK  532  A    between atoms: CB_923  and  OG1_924
REMARK  533  A    between atoms: CB_923  and  CG2_925
REMARK  534  A    between atoms: N_926  and  CA_927
REMARK  535  A    between atoms: CA_927  and  C_928
REMARK  536  A    between atoms: CA_927  and  CB_930
REMARK  537  A    between atoms: CB_930  and  CG_931
REMARK  538  A    between atoms: CG_931  and  CD_932
REMARK  539  A    between atoms: N_935  and  CA_936
REMARK  540  A    between atoms: CA_936  and  C_937
REMARK  541  A    between atoms: CA_936  and  CB_939
REMARK  542  A    between atoms: CB_939  and  CG_940
REMARK  543  A    between atoms: CG_940  and  CD2_941
REMARK  544  A    between atoms: CG_940  and  CD1_942
REMARK  545  A    between atoms: N_943  and  CA_944
REMARK  546  A    between atoms: CA_944  and  C_945
REMARK  547  A    between atoms: CA_944  and  CB_947
REMARK  548  A    between atoms: N_948  and  CA_949
REMARK  549  A    between atoms: CA_949  and  C_950
REMARK  550  A    between atoms: CA_949  and  CB_952
REMARK  551  A    between atoms: CB_952  and  CG_953
REMARK  552  A    between atoms: N_956  and  CA_957
REMARK  553  A    between atoms: CA_957  and  C_958
REMARK  554  A    between atoms: CA_957  and  CB_960
REMARK  555  A    between atoms: N_961  and  CA_962
REMARK  556  A    between atoms: CA_962  and  C_963
REMARK  557  A    between atoms: CA_962  and  CB_965
REMARK  558  A    between atoms: CB_965  and  CG_966
REMARK  559  A    between atoms: CG_966  and  CD2_967
REMARK  560  A    between atoms: CG_966  and  CD1_968
REMARK  561  A    between atoms: N_969  and  CA_970
REMARK  562  A    between atoms: CA_970  and  C_971
REMARK  563  A    between atoms: CA_970  and  CB_973
REMARK  564  A    between atoms: CB_973  and  OG_974
REMARK  565  A    between atoms: N_975  and  CA_976
REMARK  566  A    between atoms: CA_976  and  C_977
REMARK  567  A    between atoms: CA_976  and  CB_979
REMARK  568  A    between atoms: CB_979  and  CG_980
REMARK  569  A    between atoms: CZ_985  and  OH_986
REMARK  570  A    between atoms: N_987  and  CA_988
REMARK  571  A    between atoms: CA_988  and  C_989
REMARK  572  A    between atoms: CA_988  and  CB_991
REMARK  573  A    between atoms: CB_991  and  SG_992
REMARK  574  A    between atoms: N_993  and  CA_994
REMARK  575  A    between atoms: CA_994  and  C_995
REMARK  576  A    between atoms: CA_994  and  CB_997
REMARK  577  A    between atoms: CB_997  and  CG_998
REMARK  578  A    between atoms: N_1003  and  C_1004
REMARK  579  A    between atoms: C_1004  and  C_1005
REMARK  580  A    between atoms: C_1004  and  C_1007
REMARK  581  A    between atoms: C_1007  and  O_1008
REMARK  582  A    between atoms: N_1009  and  C_1010
REMARK  583  A    between atoms: C_1010  and  C_1011
REMARK  584  A    between atoms: C_1010  and  C_1013
REMARK  585  A    between atoms: C_1013  and  C_1014
REMARK  586  A    between atoms: C_1014  and  C_1015
REMARK  587  A    between atoms: C_1015  and  C_1016
REMARK  588  A    between atoms: C_1016  and  N_1017
REMARK  589  A    between atoms: N_1018  and  C_1019
REMARK  590  A    between atoms: C_1020  and  C_1021
REMARK  591  A    between atoms: C_1020  and  C_1024
REMARK  592  A    between atoms: C_1023  and  C_1026
REMARK  593  A    between atoms: C_1025  and  C_1026
REMARK  594  A    between atoms: C_1027  and  N_1029
REMARK  595  A    between atoms: C_1028  and  N_1030
REMARK  596  A    between atoms: N_1037  and  C_1038
REMARK  597  A    between atoms: C_1038  and  C_1039
REMARK  598  A    between atoms: C_1038  and  C_1041
REMARK  599  A    between atoms: C_1041  and  C_1042
REMARK  600  A    between atoms: C_1041  and  C_1043
REMARK  601  A    between atoms: N_1044  and  C_1045
REMARK  602  A    between atoms: C_1045  and  C_1046
REMARK  603  A    between atoms: C_1045  and  C_1048
REMARK  604  A    between atoms: C_1048  and  C_1049
REMARK  605  A    between atoms: C_1048  and  C_1050
REMARK  606  A    between atoms: C_1049  and  C_1051
REMARK  607  A    between atoms: N_1052  and  C_1053
REMARK  608  A    between atoms: C_1053  and  C_1054
REMARK  609  A    between atoms: C_1053  and  C_1056
REMARK  610  A    between atoms: C_1056  and  C_1057
REMARK  611  A    between atoms: N_1062  and  C_1063
REMARK  612  A    between atoms: C_1063  and  C_1064
REMARK  613  A    between atoms: C_1063  and  C_1066
REMARK  614  A    between atoms: C_1066  and  C_1067
REMARK  615  A    between atoms: C_1067  and  C_1068
REMARK  616  A    between atoms: C_1068  and  N_1069
REMARK  617  A    between atoms: N_1073  and  C_1074
REMARK  618  A    between atoms: C_1074  and  C_1077
REMARK  619  A    between atoms: C_1077  and  C_1078
REMARK  620  A    between atoms: N_1081  and  C_1084
REMARK  621  A    between atoms: C_1083  and  C_1085
REMARK  622  A    between atoms: C_1085  and  C_1086
REMARK  623  A    between atoms: C_1085  and  O_1087
REMARK  624  A    between atoms: C_1085  and  N_1097
REMARK  625  A    between atoms: C_1089  and  C_1094
REMARK  626  A    between atoms: C_1090  and  C_1091
REMARK  627  A    between atoms: C_1093  and  C_1094
REMARK  628  A    between atoms: C_1098  and  C_1099
REMARK  629  A    between atoms: C_1098  and  C_1101
REMARK  630  A    between atoms: C_1101  and  C_1102
REMARK  631  A    between atoms: C_1102  and  C_1103
REMARK  632  A    between atoms: C_1103  and  C_1104
REMARK  633  A    between atoms: C_1104  and  N_1105
REMARK  634  A    between atoms: C_1107  and  C_1108
REMARK  635  A    between atoms: N_1113  and  CA_1114
REMARK  636  A    between atoms: CA_1114  and  C_1115
REMARK  637  A    between atoms: CA_1114  and  CB_1117
REMARK  638  A    between atoms: CB_1117  and  CG_1118
REMARK  639  A    between atoms: CG_1118  and  CD_1119
REMARK  640  A    between atoms: N_1122  and  CA_1123
REMARK  641  A    between atoms: CA_1123  and  C_1124
REMARK  642  A    between atoms: CA_1123  and  CB_1126
REMARK  643  A    between atoms: CB_1126  and  CG_1127
REMARK  644  A    between atoms: N_1130  and  CA_1131
REMARK  645  A    between atoms: CA_1131  and  C_1132
REMARK  646  A    between atoms: CA_1131  and  CB_1134
REMARK  647  A    between atoms: CB_1134  and  CG_1135
REMARK  648  A    between atoms: CG_1135  and  CD2_1136
REMARK  649  A    between atoms: CG_1135  and  CD1_1137
REMARK  650  A    between atoms: N_1138  and  CA_1139
REMARK  651  A    between atoms: CA_1139  and  C_1140
REMARK  652  A    between atoms: CA_1139  and  CB_1142
REMARK  653  A    between atoms: CB_1142  and  CG_1143
REMARK  654  A    between atoms: CG_1143  and  CD1_1144
REMARK  655  A    between atoms: CG_1143  and  CD2_1145
REMARK  656  A    between atoms: N_1146  and  CA_1147
REMARK  657  A    between atoms: CA_1147  and  C_1148
REMARK  658  A    between atoms: CA_1147  and  CB_1150
REMARK  659  A    between atoms: CB_1150  and  CG_1151
REMARK  660  A    between atoms: CG_1151  and  CD2_1152
REMARK  661  A    between atoms: CG_1151  and  CD1_1153
REMARK  662  A    between atoms: N_1154  and  CA_1155
REMARK  663  A    between atoms: CA_1155  and  C_1156
REMARK  664  A    between atoms: N_1158  and  CA_1159
REMARK  665  A    between atoms: CA_1159  and  C_1160
REMARK  666  A    between atoms: CA_1159  and  CB_1162
REMARK  667  A    between atoms: CB_1162  and  OG_1163
REMARK  668  A    between atoms: N_1164  and  CA_1165
REMARK  669  A    between atoms: CA_1165  and  C_1166
REMARK  670  A    between atoms: CA_1165  and  CB_1168
REMARK  671  A    between atoms: N_1169  and  CA_1170
REMARK  672  A    between atoms: CA_1170  and  C_1171
REMARK  673  A    between atoms: N_1173  and  CA_1174
REMARK  674  A    between atoms: CA_1174  and  C_1175
REMARK  675  A    between atoms: CA_1174  and  CB_1177
REMARK  676  A    between atoms: CB_1177  and  CG_1178
REMARK  677  A    between atoms: CG_1178  and  CD_1179
REMARK  678  A    between atoms: N_1182  and  CA_1183
REMARK  679  A    between atoms: CA_1183  and  C_1184
REMARK  680  A    between atoms: CA_1183  and  CB_1186
REMARK  681  A    between atoms: CB_1186  and  CG_1187
REMARK  682  A    between atoms: CG_1187  and  CD2_1188
REMARK  683  A    between atoms: CG_1187  and  CD1_1189
REMARK  684  A    between atoms: N_1190  and  CA_1191
REMARK  685  A    between atoms: CA_1191  and  C_1192
REMARK  686  A    between atoms: CA_1191  and  CB_1194
REMARK  687  A    between atoms: CB_1194  and  CG_1195
REMARK  688  A    between atoms: CG_1195  and  CD_1196
REMARK  689  A    between atoms: CD_1196  and  CE_1197
REMARK  690  A    between atoms: CE_1197  and  NZ_1198
REMARK  691  A    between atoms: N_1199  and  CA_1200
REMARK  692  A    between atoms: CA_1200  and  C_1201
REMARK  693  A    between atoms: CA_1200  and  CB_1203
REMARK  694  A    between atoms: CB_1203  and  CG1_1204
REMARK  695  A    between atoms: CB_1203  and  CG2_1205
REMARK  696  A    between atoms: CG1_1204  and  CD1_1206
REMARK  697  A    between atoms: N_1207  and  CA_1208
REMARK  698  A    between atoms: CA_1208  and  C_1209
REMARK  699  A    between atoms: CA_1208  and  CB_1211
REMARK  700  A    between atoms: N_1212  and  CA_1213
REMARK  701  A    between atoms: CA_1213  and  C_1214
REMARK  702  A    between atoms: CA_1213  and  CB_1216
REMARK  703  A    between atoms: CB_1216  and  CG_1217
REMARK  704  A    between atoms: N_1220  and  CA_1221
REMARK  705  A    between atoms: CA_1221  and  C_1222
REMARK  706  A    between atoms: CA_1221  and  CB_1224
REMARK  707  A    between atoms: CB_1224  and  CG_1225
REMARK  708  A    between atoms: N_1231  and  CA_1232
REMARK  709  A    between atoms: CA_1232  and  C_1233
REMARK  710  A    between atoms: N_1235  and  CA_1236
REMARK  711  A    between atoms: CA_1236  and  C_1237
REMARK  712  A    between atoms: CA_1236  and  CB_1239
REMARK  713  A    between atoms: CB_1239  and  CG_1240
REMARK  714  A    between atoms: N_1249  and  CA_1250
REMARK  715  A    between atoms: CA_1250  and  C_1251
REMARK  716  A    between atoms: CA_1250  and  CB_1253
REMARK  717  A    between atoms: CB_1253  and  OG_1254
REMARK  718  A    between atoms: N_1255  and  CA_1256
REMARK  719  A    between atoms: CA_1256  and  C_1257
REMARK  720  A    between atoms: CA_1256  and  CB_1259
REMARK  721  A    between atoms: CB_1259  and  CG2_1260
REMARK  722  A    between atoms: CB_1259  and  CG1_1261
REMARK  723  A    between atoms: N_1262  and  CA_1263
REMARK  724  A    between atoms: CA_1263  and  C_1264
REMARK  725  A    between atoms: CA_1263  and  CB_1266
REMARK  726  A    between atoms: CB_1266  and  CG_1267
REMARK  727  A    between atoms: N_1272  and  CA_1273
REMARK  728  A    between atoms: CA_1273  and  C_1274
REMARK  729  A    between atoms: CA_1273  and  CB_1276
REMARK  730  A    between atoms: CA_1278  and  C_1279
REMARK  731  A    between atoms: N_1284  and  CA_1285
REMARK  732  A    between atoms: CA_1285  and  C_1286
REMARK  733  A    between atoms: CA_1285  and  CB_1288
REMARK  734  A    between atoms: CB_1288  and  OG_1289
REMARK  735  A    between atoms: N_1290  and  CA_1291
REMARK  736  A    between atoms: CA_1291  and  C_1292
REMARK  737  A    between atoms: CA_1291  and  CB_1294
REMARK  738  A    between atoms: CB_1294  and  OG_1295
REMARK  739  A    between atoms: N_1296  and  C_1297
REMARK  740  A    between atoms: C_1297  and  C_1298
REMARK  741  A    between atoms: C_1297  and  C_1300
REMARK  742  A    between atoms: C_1300  and  C_1301
REMARK  743  A    between atoms: C_1301  and  C_1302
REMARK  744  A    between atoms: N_1303  and  CA_1304
REMARK  745  A    between atoms: CA_1304  and  C_1305
REMARK  746  A    between atoms: CA_1304  and  CB_1307
REMARK  747  A    between atoms: CB_1307  and  CG_1308
REMARK  748  A    between atoms: CG_1308  and  CD_1309
REMARK  749  A    between atoms: CD_1309  and  NE_1310
REMARK  750  A    between atoms: N_1314  and  CA_1315
REMARK  751  A    between atoms: CA_1315  and  C_1316
REMARK  752  A    between atoms: CA_1315  and  CB_1318
REMARK  753  A    between atoms: CB_1318  and  OG1_1319
REMARK  754  A    between atoms: CB_1318  and  CG2_1320
REMARK  755  A    between atoms: N_1321  and  C_1322
REMARK  756  A    between atoms: C_1322  and  C_1323
REMARK  757  A    between atoms: C_1322  and  C_1325
REMARK  758  A    between atoms: C_1325  and  C_1326
REMARK  759  A    between atoms: C_1326  and  C_1327
REMARK  760  A    between atoms: C_1326  and  C_1328
REMARK  761  A    between atoms: N_1329  and  C_1330
REMARK  762  A    between atoms: C_1330  and  C_1331
REMARK  763  A    between atoms: C_1330  and  C_1333
REMARK  764  A    between atoms: N_1334  and  C_1335
REMARK  765  A    between atoms: C_1335  and  C_1336
REMARK  766  A    between atoms: N_1338  and  C_1339
REMARK  767  A    between atoms: C_1339  and  C_1340
REMARK  768  A    between atoms: C_1339  and  C_1342
REMARK  769  A    between atoms: C_1342  and  O_1343
REMARK  770  A    between atoms: C_1342  and  C_1344
REMARK  771  A    between atoms: N_1345  and  C_1346
REMARK  772  A    between atoms: C_1346  and  C_1347
REMARK  773  A    between atoms: C_1346  and  C_1349
REMARK  774  A    between atoms: C_1349  and  C_1350
REMARK  775  A    between atoms: C_1350  and  C_1351
REMARK  776  A    between atoms: C_1350  and  C_1352
REMARK  777  A    between atoms: N_1353  and  C_1354
REMARK  778  A    between atoms: C_1354  and  C_1355
REMARK  779  A    between atoms: C_1354  and  C_1357
REMARK  780  A    between atoms: C_1357  and  C_1358
REMARK  781  A    between atoms: N_1361  and  C_1362
REMARK  782  A    between atoms: C_1362  and  C_1363
REMARK  783  A    between atoms: C_1362  and  C_1365
REMARK  784  A    between atoms: C_1365  and  C_1366
REMARK  785  A    between atoms: C_1371  and  O_1372
REMARK  786  A    between atoms: N_1373  and  C_1374
REMARK  787  A    between atoms: C_1374  and  C_1375
REMARK  788  A    between atoms: C_1374  and  C_1377
REMARK  789  A    between atoms: C_1377  and  C_1378
REMARK  790  A    between atoms: C_1378  and  C_1379
REMARK  791  A    between atoms: C_1378  and  C_1380
REMARK  792  A    between atoms: C_1382  and  C_1383
REMARK  793  A    between atoms: C_1389  and  C_1390
REMARK  794  A    between atoms: N_1395  and  C_1396
REMARK  795  A    between atoms: C_1396  and  C_1399
REMARK  796  A    between atoms: C_1399  and  C_1400
REMARK  797  A    between atoms: C_1400  and  C_1401
REMARK  798  A    between atoms: N_1405  and  C_1406
REMARK  799  A    between atoms: C_1407  and  C_1412
REMARK  800  A    between atoms: C_1408  and  O_1410
REMARK  801  A    between atoms: C_1409  and  O_1411
REMARK  802  A    between atoms: O_1410  and  O_1411
REMARK  803  A    between atoms: C_1412  and  C_1414
REMARK  804  A    between atoms: C_1413  and  C_1415
REMARK  805  A    between atoms: S_1416  and  C_1418
REMARK  806  A    between atoms: S_1417  and  C_1419
REMARK  807  A    between atoms: C_1418  and  C_1419
REMARK  808  A    between atoms: N_1420  and  CA_1421
REMARK  809  A    between atoms: CA_1421  and  C_1422
REMARK  810  A    between atoms: CA_1421  and  CB_1424
REMARK  811  A    between atoms: CB_1424  and  CG1_1425
REMARK  812  A    between atoms: CB_1424  and  CG2_1426
REMARK  813  A    between atoms: CG1_1425  and  CD1_1427
REMARK  814  A    between atoms: N_1428  and  CA_1429
REMARK  815  A    between atoms: CA_1429  and  C_1430
REMARK  816  A    between atoms: CA_1429  and  CB_1432
REMARK  817  A    between atoms: CB_1432  and  CG_1433
REMARK  818  A    between atoms: CG_1433  and  CD_1434
REMARK  819  A    between atoms: N_1437  and  CA_1438
REMARK  820  A    between atoms: CA_1438  and  C_1439
REMARK  821  A    between atoms: N_1441  and  CA_1442
REMARK  822  A    between atoms: CA_1442  and  C_1443
REMARK  823  A    between atoms: CA_1442  and  CB_1445
REMARK  824  A    between atoms: CB_1445  and  CG_1446
REMARK  825  A    between atoms: CG_1446  and  CD_1447
REMARK  826  A    between atoms: CD_1447  and  NE_1448
REMARK  827  A    between atoms: N_1452  and  C_1453
REMARK  828  A    between atoms: C_1453  and  C_1454
REMARK  829  A    between atoms: C_1453  and  C_1456
REMARK  830  A    between atoms: C_1456  and  C_1457
REMARK  831  A    between atoms: C_1457  and  S_1458
REMARK  832  A    between atoms: N_1459  and  CA_1460
REMARK  833  A    between atoms: CA_1460  and  C_1461
REMARK  834  A    between atoms: CA_1460  and  CB_1463
REMARK  835  A    between atoms: CB_1463  and  CG_1464
REMARK  836  A    between atoms: N_1469  and  CA_1470
REMARK  837  A    between atoms: CA_1470  and  C_1471
REMARK  838  A    between atoms: CA_1470  and  CB_1473
REMARK  839  A    between atoms: CB_1473  and  CG_1474
REMARK  840  A    between atoms: N_1477  and  CA_1478
REMARK  841  A    between atoms: CA_1478  and  C_1479
REMARK  842  A    between atoms: CA_1478  and  CB_1481
REMARK  843  A    between atoms: CB_1481  and  CG_1482
REMARK  844  A    between atoms: CG_1482  and  CD_1483
REMARK  845  A    between atoms: N_1486  and  CA_1487
REMARK  846  A    between atoms: CA_1487  and  C_1488
REMARK  847  A    between atoms: CA_1487  and  CB_1490
REMARK  848  A    between atoms: CB_1490  and  CG_1491
REMARK  849  A    between atoms: CG_1491  and  CD_1492
REMARK  850  A    between atoms: CD_1492  and  CE_1493
REMARK  851  A    between atoms: CE_1493  and  NZ_1494
REMARK  852  A    between atoms: N_1495  and  CA_1496
REMARK  853  A    between atoms: CA_1496  and  C_1497
REMARK  854  A    between atoms: CA_1496  and  CB_1499
REMARK  855  A    between atoms: CB_1499  and  CG2_1500
REMARK  856  A    between atoms: CB_1499  and  CG1_1501
REMARK  857  A    between atoms: N_1502  and  CA_1503
REMARK  858  A    between atoms: CA_1503  and  C_1504
REMARK  859  A    between atoms: CA_1503  and  CB_1506
REMARK  860  A    between atoms: CB_1506  and  CG_1507
REMARK  861  A    between atoms: N_1510  and  CA_1511
REMARK  862  A    between atoms: CA_1511  and  C_1512
REMARK  863  A    between atoms: CA_1511  and  CB_1514
REMARK  864  A    between atoms: CB_1514  and  CG_1515
REMARK  865  A    between atoms: CG_1515  and  CD2_1516
REMARK  866  A    between atoms: CG_1515  and  CD1_1517
REMARK  867  A    between atoms: N_1518  and  CA_1519
REMARK  868  A    between atoms: CA_1519  and  C_1520
REMARK  869  A    between atoms: CA_1519  and  CB_1522
REMARK  870  A    between atoms: CB_1522  and  CG_1523
REMARK  871  A    between atoms: N_1532  and  CA_1533
REMARK  872  A    between atoms: CA_1533  and  C_1534
REMARK  873  A    between atoms: CA_1533  and  CB_1536
REMARK  874  A    between atoms: CB_1536  and  OG_1537
REMARK  875  A    between atoms: N_1538  and  CA_1539
REMARK  876  A    between atoms: CA_1539  and  C_1540
REMARK  877  A    between atoms: CA_1539  and  CB_1542
REMARK  878  A    between atoms: CB_1542  and  CG_1543
REMARK  879  A    between atoms: CG_1543  and  CD2_1544
REMARK  880  A    between atoms: CG_1543  and  CD1_1545
REMARK  881  A    between atoms: N_1546  and  CA_1547
REMARK  882  A    between atoms: CA_1547  and  C_1548
REMARK  883  A    between atoms: N_1550  and  CA_1551
REMARK  884  A    between atoms: CA_1551  and  C_1552
REMARK  885  A    between atoms: CA_1551  and  CB_1554
REMARK  886  A    between atoms: CB_1554  and  CG2_1555
REMARK  887  A    between atoms: CB_1554  and  CG1_1556
REMARK  888  A    between atoms: N_1557  and  CA_1558
REMARK  889  A    between atoms: CA_1558  and  C_1559
REMARK  890  A    between atoms: CA_1558  and  CB_1561
REMARK  891  A    between atoms: CB_1561  and  CG_1562
REMARK  892  A    between atoms: CG_1562  and  CD1_1563
REMARK  893  A    between atoms: CG_1562  and  CD2_1564
REMARK  894  A    between atoms: N_1565  and  CA_1566
REMARK  895  A    between atoms: CA_1566  and  C_1567
REMARK  896  A    between atoms: CA_1566  and  CB_1569
REMARK  897  A    between atoms: CB_1569  and  SG_1570
REMARK  898  A    between atoms: N_1571  and  CA_1572
REMARK  899  A    between atoms: CA_1572  and  C_1573
REMARK  900  A    between atoms: CA_1572  and  CB_1575
REMARK  901  A    between atoms: CB_1575  and  CG_1576
REMARK  902  A    between atoms: CZ_1581  and  OH_1582
REMARK  903  A    between atoms: N_1583  and  CA_1584
REMARK  904  A    between atoms: CA_1584  and  C_1585
REMARK  905  A    between atoms: CA_1584  and  CB_1587
REMARK  906  A    between atoms: CB_1587  and  CG_1588
REMARK  907  A    between atoms: CG_1588  and  CD_1589
REMARK  908  A    between atoms: N_1592  and  CA_1593
REMARK  909  A    between atoms: CA_1593  and  C_1594
REMARK  910  A    between atoms: CA_1593  and  CB_1596
REMARK  911  A    between atoms: CB_1596  and  CG_1597
REMARK  912  A    between atoms: N_1603  and  CA_1604
REMARK  913  A    between atoms: CA_1604  and  C_1605
REMARK  914  A    between atoms: CA_1604  and  CB_1607
REMARK  915  A    between atoms: CB_1607  and  CG_1608
REMARK  916  A    between atoms: CG_1608  and  CD1_1609
REMARK  917  A    between atoms: CG_1608  and  CD2_1610
REMARK  918  A    between atoms: N_1611  and  CA_1612
REMARK  919  A    between atoms: CA_1612  and  C_1613
REMARK  920  A    between atoms: CA_1612  and  CB_1615
REMARK  921  A    between atoms: CB_1615  and  CG2_1616
REMARK  922  A    between atoms: CB_1615  and  CG1_1617
REMARK  923  A    between atoms: N_1618  and  CA_1619
REMARK  924  A    between atoms: CA_1619  and  C_1620
REMARK  925  A    between atoms: N_1622  and  C_1623
REMARK  926  A    between atoms: C_1623  and  C_1624
REMARK  927  A    between atoms: C_1623  and  C_1626
REMARK  928  A    between atoms: C_1626  and  C_1627
REMARK  929  A    between atoms: C_1627  and  C_1628
REMARK  930  A    between atoms: CA_1630  and  C_1631
REMARK  931  A    between atoms: CA_1637  and  C_1638
REMARK  932  A    between atoms: N_1643  and  CA_1644
REMARK  933  A    between atoms: CA_1644  and  C_1645
REMARK  934  A    between atoms: CA_1644  and  CB_1647
REMARK  935  A    between atoms: CB_1647  and  CG_1648
REMARK  936  A    between atoms: N_1654  and  CA_1655
REMARK  937  A    between atoms: CA_1655  and  C_1656
REMARK  938  A    between atoms: CA_1655  and  CB_1658
REMARK  939  A    between atoms: CB_1658  and  CG_1659
REMARK  940  A    between atoms: CG_1659  and  CD_1660
REMARK  941  A    between atoms: N_1663  and  CA_1664
REMARK  942  A    between atoms: CA_1664  and  C_1665
REMARK  943  A    between atoms: CA_1664  and  CB_1667
REMARK  944  A    between atoms: N_1668  and  CA_1669
REMARK  945  A    between atoms: CA_1669  and  C_1670
REMARK  946  A    between atoms: CA_1669  and  CB_1672
REMARK  947  A    between atoms: CB_1672  and  CG_1673
REMARK  948  A    between atoms: N_1676  and  CA_1677
REMARK  949  A    between atoms: CA_1677  and  C_1678
REMARK  950  A    between atoms: CA_1677  and  CB_1680
REMARK  951  A    between atoms: CB_1680  and  OG1_1681
REMARK  952  A    between atoms: CB_1680  and  CG2_1682
REMARK  953  A    between atoms: N_1683  and  CA_1684
REMARK  954  A    between atoms: CA_1684  and  C_1685
REMARK  955  A    between atoms: CA_1684  and  CB_1687
REMARK  956  A    between atoms: CB_1687  and  CG_1688
REMARK  957  A    between atoms: CZ_1693  and  OH_1694
REMARK  958  A    between atoms: N_1695  and  CA_1696
REMARK  959  A    between atoms: CA_1696  and  C_1697
REMARK  960  A    between atoms: CA_1696  and  CB_1699
REMARK  961  A    between atoms: CB_1699  and  CG_1700
REMARK  962  A    between atoms: CG_1700  and  CD_1701
REMARK  963  A    between atoms: N_1704  and  CA_1705
REMARK  964  A    between atoms: CA_1705  and  C_1706
REMARK  965  A    between atoms: CA_1705  and  CB_1708
REMARK  966  A    between atoms: CB_1708  and  CG_1709
REMARK  967  A    between atoms: CG_1709  and  CD_1710
REMARK  968  A    between atoms: N_1713  and  CA_1714
REMARK  969  A    between atoms: CA_1714  and  C_1715
REMARK  970  A    between atoms: CA_1714  and  CB_1717
REMARK  971  A    between atoms: CB_1717  and  OG1_1718
REMARK  972  A    between atoms: CB_1717  and  CG2_1719
REMARK  973  A    between atoms: N_1720  and  CA_1721
REMARK  974  A    between atoms: CA_1721  and  C_1722
REMARK  975  A    between atoms: CA_1721  and  CB_1724
REMARK  976  A    between atoms: CB_1724  and  CG_1725
REMARK  977  A    between atoms: CZ_1730  and  OH_1731
REMARK  978  A    between atoms: N_1732  and  CA_1733
REMARK  979  A    between atoms: CA_1733  and  C_1734
REMARK  980  A    between atoms: CA_1733  and  CB_1736
REMARK  981  A    between atoms: CB_1736  and  SG_1737
REMARK  982  A    between atoms: N_1738  and  C_1739
REMARK  983  A    between atoms: C_1739  and  C_1740
REMARK  984  A    between atoms: C_1739  and  C_1742
REMARK  985  A    between atoms: C_1742  and  C_1743
REMARK  986  A    between atoms: C_1743  and  C_1744
REMARK  987  A    between atoms: C_1744  and  N_1745
REMARK  988  A    between atoms: N_1746  and  CA_1747
REMARK  989  A    between atoms: CA_1747  and  C_1748
REMARK  990  A    between atoms: CA_1747  and  CB_1750
REMARK  991  A    between atoms: CB_1750  and  CG1_1751
REMARK  992  A    between atoms: CB_1750  and  CG2_1752
REMARK  993  A    between atoms: CG1_1751  and  CD1_1753
REMARK  994  A    between atoms: N_1754  and  C_1755
REMARK  995  A    between atoms: C_1755  and  C_1756
REMARK  996  A    between atoms: C_1755  and  C_1758
REMARK  997  A    between atoms: C_1758  and  O_1759
REMARK  998  A    between atoms: N_1760  and  C_1761
REMARK  999  A    between atoms: C_1761  and  C_1762
REMARK  1000  A    between atoms: C_1761  and  C_1764
REMARK  1001  A    between atoms: C_1764  and  C_1765
REMARK  1002  A    between atoms: C_1765  and  C_1766
REMARK  1003  A    between atoms: C_1766  and  N_1767
REMARK  1004  A    between atoms: N_1771  and  C_1772
REMARK  1005  A    between atoms: C_1772  and  C_1773
REMARK  1006  A    between atoms: C_1772  and  C_1775
REMARK  1007  A    between atoms: C_1775  and  C_1776
REMARK  1008  A    between atoms: C_1775  and  C_1777
REMARK  1009  A    between atoms: N_1778  and  C_1779
REMARK  1010  A    between atoms: C_1779  and  C_1780
REMARK  1011  A    between atoms: C_1779  and  C_1782
REMARK  1012  A    between atoms: C_1782  and  C_1783
REMARK  1013  A    between atoms: C_1783  and  C_1784
REMARK  1014  A    between atoms: N_1787  and  C_1788
REMARK  1015  A    between atoms: C_1788  and  C_1789
REMARK  1016  A    between atoms: C_1788  and  C_1791
REMARK  1017  A    between atoms: C_1791  and  C_1792
REMARK  1018  A    between atoms: N_1798  and  C_1799
REMARK  1019  A    between atoms: C_1799  and  C_1800
REMARK  1020  A    between atoms: C_1799  and  C_1802
REMARK  1021  A    between atoms: C_1802  and  O_1803
REMARK  1022  A    between atoms: C_1802  and  C_1804
REMARK  1023  A    between atoms: N_1805  and  C_1806
REMARK  1024  A    between atoms: C_1806  and  C_1807
REMARK  1025  A    between atoms: C_1806  and  C_1809
REMARK  1026  A    between atoms: C_1809  and  C_1810
REMARK  1027  A    between atoms: C_1817  and  C_1818
REMARK  1028  A    between atoms: N_1823  and  C_1824
REMARK  1029  A    between atoms: C_1824  and  C_1825
REMARK  1030  A    between atoms: C_1824  and  C_1827
REMARK  1031  A    between atoms: C_1827  and  C_1828
REMARK  1032  A    between atoms: N_1831  and  C_1832
REMARK  1033  A    between atoms: C_1832  and  C_1833
REMARK  1034  A    between atoms: C_1832  and  C_1835
REMARK  1035  A    between atoms: C_1835  and  C_1836
REMARK  1036  A    between atoms: N_1842  and  C_1843
REMARK  1037  A    between atoms: C_1843  and  C_1844
REMARK  1038  A    between atoms: C_1843  and  C_1846
REMARK  1039  A    between atoms: C_1846  and  C_1847
REMARK  1040  A    between atoms: C_1846  and  C_1848
REMARK  1041  A    between atoms: N_1849  and  C_1850
REMARK  1042  A    between atoms: C_1850  and  C_1851
REMARK  1043  A    between atoms: C_1850  and  C_1853
REMARK  1044  A    between atoms: C_1853  and  O_1854
REMARK  1045  A    between atoms: C_1853  and  C_1855
REMARK  1046  A    between atoms: N_1856  and  C_1857
REMARK  1047  A    between atoms: C_1858  and  C_1859
REMARK  1048  A    between atoms: C_1858  and  C_1861
REMARK  1049  A    between atoms: C_1862  and  C_1863
REMARK  1050  A    between atoms: C_1862  and  C_1864
REMARK  1051  A    between atoms: C_1863  and  C_1865
REMARK  1052  A    between atoms: N_1871  and  C_1872
REMARK  1053  A    between atoms: C_1872  and  C_1873
REMARK  1054  A    between atoms: N_1875  and  CA_1876
REMARK  1055  A    between atoms: CA_1876  and  C_1877
REMARK  1056  A    between atoms: CA_1876  and  CB_1879
REMARK  1057  A    between atoms: N_1880  and  CA_1881
REMARK  1058  A    between atoms: CA_1881  and  C_1882
REMARK  1059  A    between atoms: CA_1881  and  CB_1884
REMARK  1060  A    between atoms: CB_1884  and  CG_1885
REMARK  1061  A    between atoms: CG_1885  and  CD_1886
REMARK  1062  A    between atoms: CD_1886  and  NE_1887
REMARK  1063  A    between atoms: N_1891  and  CA_1892
REMARK  1064  A    between atoms: CA_1892  and  C_1893
REMARK  1065  A    between atoms: CA_1892  and  CB_1895
REMARK  1066  A    between atoms: CB_1895  and  CG_1896
REMARK  1067  A    between atoms: N_1899  and  CA_1900
REMARK  1068  A    between atoms: CA_1900  and  C_1901
REMARK  1069  A    between atoms: CA_1900  and  CB_1903
REMARK  1070  A    between atoms: CB_1903  and  CG_1904
REMARK  1071  A    between atoms: CG_1904  and  CD1_1905
REMARK  1072  A    between atoms: CG_1904  and  CD2_1906
REMARK  1073  A    between atoms: N_1907  and  CA_1908
REMARK  1074  A    between atoms: CA_1908  and  C_1909
REMARK  1075  A    between atoms: CA_1908  and  CB_1911
REMARK  1076  A    between atoms: CB_1911  and  CG1_1912
REMARK  1077  A    between atoms: CB_1911  and  CG2_1913
REMARK  1078  A    between atoms: CG1_1912  and  CD1_1914
REMARK  1079  A    between atoms: N_1915  and  CA_1916
REMARK  1080  A    between atoms: CA_1916  and  C_1917
REMARK  1081  A    between atoms: CA_1916  and  CB_1919
REMARK  1082  A    between atoms: CB_1919  and  OG_1920
REMARK  1083  A    between atoms: N_1921  and  CA_1922
REMARK  1084  A    between atoms: CA_1922  and  C_1923
REMARK  1085  A    between atoms: CA_1922  and  CB_1925
REMARK  1086  A    between atoms: CB_1925  and  CG_1926
REMARK  1087  A    between atoms: CG_1926  and  CD_1927
REMARK  1088  A    between atoms: CD_1927  and  NE_1928
REMARK  1089  A    between atoms: N_1932  and  CA_1933
REMARK  1090  A    between atoms: CA_1933  and  C_1934
REMARK  1091  A    between atoms: CA_1933  and  CB_1936
REMARK  1092  A    between atoms: CB_1936  and  CG_1937
REMARK  1093  A    between atoms: CG_1937  and  CD2_1938
REMARK  1094  A    between atoms: CG_1937  and  CD1_1939
REMARK  1095  A    between atoms: N_1940  and  CA_1941
REMARK  1096  A    between atoms: CA_1941  and  C_1942
REMARK  1097  A    between atoms: CA_1941  and  CB_1944
REMARK  1098  A    between atoms: CB_1944  and  CG_1945
REMARK  1099  A    between atoms: CG_1945  and  CD2_1946
REMARK  1100  A    between atoms: CG_1945  and  CD1_1947
REMARK  1101  A    between atoms: N_1948  and  CA_1949
REMARK  1102  A    between atoms: CA_1949  and  C_1950
REMARK  1103  A    between atoms: CA_1949  and  CB_1952
REMARK  1104  A    between atoms: CB_1952  and  CG_1953
REMARK  1105  A    between atoms: CG_1953  and  CD_1954
REMARK  1106  A    between atoms: CD_1954  and  CE_1955
REMARK  1107  A    between atoms: CE_1955  and  NZ_1956
REMARK  1108  A    between atoms: N_1957  and  CA_1958
REMARK  1109  A    between atoms: CA_1958  and  C_1959
REMARK  1110  A    between atoms: CA_1958  and  CB_1961
REMARK  1111  A    between atoms: CB_1961  and  CG_1962
REMARK  1112  A    between atoms: N_1967  and  CA_1968
REMARK  1113  A    between atoms: CA_1968  and  C_1969
REMARK  1114  A    between atoms: CA_1968  and  CB_1971
REMARK  1115  A    between atoms: CB_1971  and  CG_1972
REMARK  1116  A    between atoms: CA_1976  and  C_1977
REMARK  1117  A    between atoms: N_1982  and  C_1983
REMARK  1118  A    between atoms: C_1983  and  C_1984
REMARK  1119  A    between atoms: C_1983  and  C_1986
REMARK  1120  A    between atoms: C_1986  and  O_1987
REMARK  1121  A    between atoms: N_1988  and  C_1989
REMARK  1122  A    between atoms: C_1989  and  C_1990
REMARK  1123  A    between atoms: C_1989  and  C_1992
REMARK  1124  A    between atoms: C_1992  and  C_1993
REMARK  1125  A    between atoms: C_1993  and  C_1994
REMARK  1126  A    between atoms: N_1997  and  C_1998
REMARK  1127  A    between atoms: C_1998  and  C_1999
REMARK  1128  A    between atoms: C_1998  and  C_2001
REMARK  1129  A    between atoms: C_2001  and  C_2002
REMARK  1130  A    between atoms: C_2002  and  C_2003
REMARK  1131  A    between atoms: C_2003  and  N_2004
REMARK  1132  A    between atoms: C_2009  and  C_2010
REMARK  1133  A    between atoms: N_2015  and  C_2017
REMARK  1134  A    between atoms: C_2016  and  C_2018
REMARK  1135  A    between atoms: C_2016  and  C_2021
REMARK  1136  A    between atoms: C_2021  and  C_2022
REMARK  1137  A    between atoms: C_2022  and  C_2023
REMARK  1138  A    between atoms: C_2023  and  S_2024
REMARK  1139  A    between atoms: C_2023  and  S_2025
REMARK  1140  A    between atoms: S_2024  and  C_2026
REMARK  1141  A    between atoms: S_2025  and  C_2027
REMARK  1142  A    between atoms: N_2028  and  CA_2029
REMARK  1143  A    between atoms: CA_2029  and  C_2030
REMARK  1144  A    between atoms: CA_2029  and  CB_2032
REMARK  1145  A    between atoms: CB_2032  and  CG_2033
REMARK  1146  A    between atoms: CG_2033  and  CD1_2034
REMARK  1147  A    between atoms: CG_2033  and  CD2_2035
REMARK  1148  A    between atoms: N_2036  and  CA_2037
REMARK  1149  A    between atoms: CA_2037  and  C_2038
REMARK  1150  A    between atoms: CA_2037  and  CB_2040
REMARK  1151  A    between atoms: N_2041  and  CA_2042
REMARK  1152  A    between atoms: CA_2042  and  C_2043
REMARK  1153  A    between atoms: CA_2042  and  CB_2045
REMARK  1154  A    between atoms: CB_2045  and  CG_2046
REMARK  1155  A    between atoms: CG_2046  and  CD_2047
REMARK  1156  A    between atoms: N_2050  and  CA_2051
REMARK  1157  A    between atoms: CA_2051  and  C_2052
REMARK  1158  A    between atoms: CA_2051  and  CB_2054
REMARK  1159  A    between atoms: CB_2054  and  CG2_2055
REMARK  1160  A    between atoms: CB_2054  and  CG1_2056
REMARK  1161  A    between atoms: N_2057  and  CA_2058
REMARK  1162  A    between atoms: CA_2058  and  C_2059
REMARK  1163  A    between atoms: CA_2058  and  CB_2061
REMARK  1164  A    between atoms: CB_2061  and  CG_2062
REMARK  1165  A    between atoms: CG_2062  and  CD1_2063
REMARK  1166  A    between atoms: CG_2062  and  CD2_2064
REMARK  1167  A    between atoms: N_2065  and  CA_2066
REMARK  1168  A    between atoms: CA_2066  and  C_2067
REMARK  1169  A    between atoms: CA_2066  and  CB_2069
REMARK  1170  A    between atoms: CB_2069  and  CG_2070
REMARK  1171  A    between atoms: CG_2070  and  CD_2071
REMARK  1172  A    between atoms: N_2074  and  CA_2075
REMARK  1173  A    between atoms: CA_2075  and  C_2076
REMARK  1174  A    between atoms: CA_2075  and  CB_2078
REMARK  1175  A    between atoms: CB_2078  and  CG_2079
REMARK  1176  A    between atoms: CA_2085  and  C_2086
REMARK  1177  A    between atoms: N_2091  and  CA_2092
REMARK  1178  A    between atoms: CA_2092  and  C_2093
REMARK  1179  A    between atoms: CA_2092  and  CB_2095
REMARK  1180  A    between atoms: CB_2095  and  CG_2096
REMARK  1181  A    between atoms: N_2105  and  CA_2106
REMARK  1182  A    between atoms: CA_2106  and  C_2107
REMARK  1183  A    between atoms: CA_2106  and  CB_2109
REMARK  1184  A    between atoms: CB_2109  and  CG1_2110
REMARK  1185  A    between atoms: CB_2109  and  CG2_2111
REMARK  1186  A    between atoms: CG1_2110  and  CD1_2112
REMARK  1187  A    between atoms: N_2113  and  CA_2114
REMARK  1188  A    between atoms: CA_2114  and  C_2115
REMARK  1189  A    between atoms: CA_2114  and  CB_2117
REMARK  1190  A    between atoms: CB_2117  and  OG1_2118
REMARK  1191  A    between atoms: CB_2117  and  CG2_2119
REMARK  1192  A    between atoms: N_2120  and  CA_2121
REMARK  1193  A    between atoms: CA_2121  and  C_2122
REMARK  1194  A    between atoms: CA_2121  and  CB_2124
REMARK  1195  A    between atoms: N_2125  and  CA_2126
REMARK  1196  A    between atoms: CA_2126  and  C_2127
REMARK  1197  A    between atoms: CA_2126  and  CB_2129
REMARK  1198  A    between atoms: CB_2129  and  CG_2130
REMARK  1199  A    between atoms: N_2133  and  CA_2134
REMARK  1200  A    between atoms: CA_2134  and  C_2135
REMARK  1201  A    between atoms: CA_2134  and  CB_2137
REMARK  1202  A    between atoms: CB_2137  and  OG_2138
REMARK  1203  A    between atoms: N_2139  and  CA_2140
REMARK  1204  A    between atoms: CA_2140  and  C_2141
REMARK  1205  A    between atoms: CA_2140  and  CB_2143
REMARK  1206  A    between atoms: CB_2143  and  OG_2144
REMARK  1207  A    between atoms: N_2145  and  C_2146
REMARK  1208  A    between atoms: C_2146  and  C_2147
REMARK  1209  A    between atoms: C_2146  and  C_2149
REMARK  1210  A    between atoms: C_2149  and  C_2150
REMARK  1211  A    between atoms: N_2151  and  CA_2152
REMARK  1212  A    between atoms: CA_2152  and  C_2153
REMARK  1213  A    between atoms: CA_2152  and  CB_2155
REMARK  1214  A    between atoms: CB_2155  and  OG_2156
REMARK  1215  A    between atoms: N_2157  and  CA_2158
REMARK  1216  A    between atoms: CA_2158  and  C_2159
REMARK  1217  A    between atoms: CA_2158  and  CB_2161
REMARK  1218  A    between atoms: CB_2161  and  CG_2162
REMARK  1219  A    between atoms: CG_2162  and  CD_2163
REMARK  1220  A    between atoms: CA_2167  and  C_2168
REMARK  1221  A    between atoms: CA_2174  and  C_2175
REMARK  1222  A    between atoms: N_2180  and  CA_2181
REMARK  1223  A    between atoms: CA_2181  and  C_2182
REMARK  1224  A    between atoms: CA_2181  and  CB_2184
REMARK  1225  A    between atoms: CB_2184  and  OG_2185
REMARK  1226  A    between atoms: N_2186  and  CA_2187
REMARK  1227  A    between atoms: CA_2187  and  C_2188
REMARK  1228  A    between atoms: CA_2187  and  CB_2190
REMARK  1229  A    between atoms: CB_2190  and  CG_2191
REMARK  1230  A    between atoms: N_2200  and  CA_2201
REMARK  1231  A    between atoms: CA_2201  and  C_2202
REMARK  1232  A    between atoms: CA_2201  and  CB_2204
REMARK  1233  A    between atoms: CB_2204  and  CG2_2205
REMARK  1234  A    between atoms: CB_2204  and  CG1_2206
REMARK  1235  A    between atoms: N_2207  and  CA_2208
REMARK  1236  A    between atoms: CA_2208  and  C_2209
REMARK  1237  A    between atoms: CA_2208  and  CB_2211
REMARK  1238  A    between atoms: CB_2211  and  OG1_2212
REMARK  1239  A    between atoms: CB_2211  and  CG2_2213
REMARK  1240  A    between atoms: N_2214  and  CA_2215
REMARK  1241  A    between atoms: CA_2215  and  C_2216
REMARK  1242  A    between atoms: CA_2215  and  CB_2218
REMARK  1243  A    between atoms: CB_2218  and  CG_2219
REMARK  1244  A    between atoms: CG_2219  and  CD_2220
REMARK  1245  A    between atoms: N_2223  and  CA_2224
REMARK  1246  A    between atoms: CA_2224  and  C_2225
REMARK  1247  A    between atoms: CA_2224  and  CB_2227
REMARK  1248  A    between atoms: CB_2227  and  CG_2228
REMARK  1249  A    between atoms: CG_2228  and  SD_2229
REMARK  1250  A    between atoms: SD_2229  and  CE_2230
REMARK  1251  A    between atoms: N_2231  and  CA_2232
REMARK  1252  A    between atoms: CA_2232  and  C_2233
REMARK  1253  A    between atoms: CA_2232  and  CB_2235
REMARK  1254  A    between atoms: CB_2235  and  CG_2236
REMARK  1255  A    between atoms: CG_2236  and  CD1_2237
REMARK  1256  A    between atoms: CG_2236  and  CD2_2238
REMARK  1257  A    between atoms: N_2239  and  CA_2240
REMARK  1258  A    between atoms: CA_2240  and  C_2241
REMARK  1259  A    between atoms: CA_2240  and  CB_2243
REMARK  1260  A    between atoms: CB_2243  and  CG_2244
REMARK  1261  A    between atoms: CG_2244  and  CD1_2245
REMARK  1262  A    between atoms: CG_2244  and  CD2_2246
REMARK  1263  A    between atoms: N_2247  and  CA_2248
REMARK  1264  A    between atoms: CA_2248  and  C_2249
REMARK  1265  A    between atoms: CA_2248  and  CB_2251
REMARK  1266  A    between atoms: CB_2251  and  CG_2252
REMARK  1267  A    between atoms: CG_2252  and  CD_2253
REMARK  1268  A    between atoms: N_2256  and  CA_2257
REMARK  1269  A    between atoms: CA_2257  and  C_2258
REMARK  1270  A    between atoms: CA_2257  and  CB_2260
REMARK  1271  A    between atoms: CB_2260  and  CG_2261
REMARK  1272  A    between atoms: CG_2261  and  CD_2262
REMARK  1273  A    between atoms: CD_2262  and  CE_2263
REMARK  1274  A    between atoms: CE_2263  and  NZ_2264
REMARK  1275  A    between atoms: N_2265  and  C_2266
REMARK  1276  A    between atoms: C_2266  and  C_2267
REMARK  1277  A    between atoms: C_2266  and  C_2269
REMARK  1278  A    between atoms: C_2269  and  C_2270
REMARK  1279  A    between atoms: N_2271  and  CA_2272
REMARK  1280  A    between atoms: CA_2272  and  C_2273
REMARK  1281  A    between atoms: CA_2272  and  CB_2275
REMARK  1282  A    between atoms: CB_2275  and  CG_2276
REMARK  1283  A    between atoms: CG_2276  and  CD2_2277
REMARK  1284  A    between atoms: CG_2276  and  CD1_2278
REMARK  1285  A    between atoms: N_2279  and  CA_2280
REMARK  1286  A    between atoms: CA_2280  and  C_2281
REMARK  1287  A    between atoms: CA_2280  and  CB_2283
REMARK  1288  A    between atoms: CB_2283  and  CG_2284
REMARK  1289  A    between atoms: N_2293  and  CA_2294
REMARK  1290  A    between atoms: CA_2294  and  C_2295
REMARK                            x       y       z     vdW  Elec       q    Type
REMARK                         _______ _______ _______ _____ _____    ______ ____
ROOT
ATOM      1  C   UNL     2     -41.507  34.608   6.690  0.00  0.00    +0.322 C 
ATOM      2  O   UNL     2     -40.365  34.339   7.057  0.00  0.00    -0.280 OA
ATOM      3  N   UNL     2     -41.951  35.859   6.594  0.00  0.00    -0.332 N 
ATOM      4  H   UNL     2     -41.357  36.611   6.821  0.00  0.00    +0.145 HD
ATOM      5  H   UNL     2     -42.873  36.033   6.296  0.00  0.00    +0.145 HD
ENDROOT
TORSDOF 0
REMARK  Name = /Users/wangyang/Desktop/Breast_cancer_brain_metastasis/wang_Gene/AIDD/15_Protein_ligand_docking/data_7ztl/protein.pdb
REMARK  1290 active torsions:
REMARK  status: ('A' for Active; 'I' for Inactive)
REMARK    1  A    between atoms: N_1  and  CA_2
REMARK    2  A    between atoms: CA_2  and  C_3
REMARK    3  A    between atoms: N_5  and  CA_6
REMARK    4  A    between atoms: CA_6  and  C_7
REMARK    5  A    between atoms: CA_6  and  CB_9
REMARK    6  A    between atoms: N_10  and  CA_11
REMARK    7  A    between atoms: CA_11  and  C_12
REMARK    8  A    between atoms: CA_11  and  CB_14
REMARK    9  A    between atoms: CB_14  and  CG_15
REMARK   10  A    between atoms: N_24  and  CA_25
REMARK   11  A    between atoms: CA_25  and  C_26
REMARK   12  A    between atoms: CA_25  and  CB_28
REMARK   13  A    between atoms: N_29  and  CA_30
REMARK   14  A    between atoms: CA_30  and  C_31
REMARK   15  A    between atoms: CA_30  and  CB_33
REMARK   16  A    between atoms: CB_33  and  CG_34
REMARK   17  A    between atoms: CG_34  and  CD1_35
REMARK   18  A    between atoms: CG_34  and  CD2_36
REMARK   19  A    between atoms: N_37  and  CA_38
REMARK   20  A    between atoms: CA_38  and  C_39
REMARK   21  A    between atoms: CA_38  and  CB_41
REMARK   22  A    between atoms: CB_41  and  CG_42
REMARK   23  A    between atoms: CG_42  and  CD_43
REMARK   24  A    between atoms: N_46  and  CA_47
REMARK   25  A    between atoms: CA_47  and  C_48
REMARK   26  A    between atoms: CA_47  and  CB_50
REMARK   27  A    between atoms: CB_50  and  CG_51
REMARK   28  A    between atoms: N_54  and  CA_55
REMARK   29  A    between atoms: CA_55  and  C_56
REMARK   30  A    between atoms: CA_55  and  CB_58
REMARK   31  A    between atoms: CB_58  and  CG_59
REMARK   32  A    between atoms: N_65  and  CA_66
REMARK   33  A    between atoms: CA_66  and  C_67
REMARK   34  A    between atoms: CA_66  and  CB_69
REMARK   35  A    between atoms: CB_69  and  CG_70
REMARK   36  A    between atoms: CG_70  and  CD_71
REMARK   37  A    between atoms: N_74  and  CA_75
REMARK   38  A    between atoms: CA_75  and  C_76
REMARK   39  A    between atoms: CA_75  and  CB_78
REMARK   40  A    between atoms: CB_78  and  CG1_79
REMARK   41  A    between atoms: CB_78  and  CG2_80
REMARK   42  A    between atoms: CG1_79  and  CD1_81
REMARK   43  A    between atoms: N_82  and  CA_83
REMARK   44  A    between atoms: CA_83  and  C_84
REMARK   45  A    between atoms: N_86  and  CA_87
REMARK   46  A    between atoms: CA_87  and  C_88
REMARK   47  A    between atoms: CA_87  and  CB_90
REMARK   48  A    between atoms: CB_90  and  CG_91
REMARK   49  A    between atoms: CG_91  and  CD_92
REMARK   50  A    between atoms: CD_92  and  NE_93
REMARK   51  A    between atoms: CA_98  and  C_99
REMARK   52  A    between atoms: N_104  and  CA_105
REMARK   53  A    between atoms: CA_105  and  C_106
REMARK   54  A    between atoms: CA_105  and  CB_108
REMARK   55  A    between atoms: CB_108  and  CG_109
REMARK   56  A    between atoms: CG_109  and  CD1_110
REMARK   57  A    between atoms: CG_109  and  CD2_111
REMARK   58  A    between atoms: N_112  and  CA_113
REMARK   59  A    between atoms: CA_113  and  C_114
REMARK   60  A    between atoms: N_116  and  C_117
REMARK   61  A    between atoms: C_117  and  C_118
REMARK   62  A    between atoms: C_117  and  C_120
REMARK   63  A    between atoms: C_120  and  C_121
REMARK   64  A    between atoms: C_121  and  C_122
REMARK   65  A    between atoms: N_123  and  CA_124
REMARK   66  A    between atoms: CA_124  and  C_125
REMARK   67  A    between atoms: N_127  and  CA_128
REMARK   68  A    between atoms: CA_128  and  C_129
REMARK   69  A    between atoms: CA_128  and  CB_131
REMARK   70  A    between atoms: CB_131  and  CG_132
REMARK   71  A    between atoms: CG_132  and  CD_133
REMARK   72  A    between atoms: CD_133  and  CE_134
REMARK   73  A    between atoms: CE_134  and  NZ_135
REMARK   74  A    between atoms: N_136  and  CA_137
REMARK   75  A    between atoms: CA_137  and  C_138
REMARK   76  A    between atoms: CA_137  and  CB_140
REMARK   77  A    between atoms: CB_140  and  CG_141
REMARK   78  A    between atoms: N_147  and  CA_148
REMARK   79  A    between atoms: CA_148  and  C_149
REMARK   80  A    between atoms: N_151  and  CA_152
REMARK   81  A    between atoms: CA_152  and  C_153
REMARK   82  A    between atoms: CA_152  and  CB_155
REMARK   83  A    between atoms: CB_155  and  CG_156
REMARK   84  A    between atoms: N_159  and  CA_160
REMARK   85  A    between atoms: CA_160  and  C_161
REMARK   86  A    between atoms: CA_160  and  CB_163
REMARK   87  A    between atoms: CB_163  and  CG1_164
REMARK   88  A    between atoms: CB_163  and  CG2_165
REMARK   89  A    between atoms: N_166  and  CA_167
REMARK   90  A    between atoms: CA_167  and  C_168
REMARK   91  A    between atoms: CA_167  and  CB_170
REMARK   92  A    between atoms: CB_170  and  CG_171
REMARK   93  A    between atoms: CZ_176  and  OH_177
REMARK   94  A    between atoms: N_178  and  CA_179
REMARK   95  A    between atoms: CA_179  and  C_180
REMARK   96  A    between atoms: CA_179  and  CB_182
REMARK   97  A    between atoms: CB_182  and  CG_183
REMARK   98  A    between atoms: CG_183  and  CD1_184
REMARK   99  A    between atoms: CG_183  and  CD2_185
REMARK  100  A    between atoms: N_186  and  CA_187
REMARK  101  A    between atoms: CA_187  and  C_188
REMARK  102  A    between atoms: CA_187  and  CB_190
REMARK  103  A    between atoms: N_191  and  CA_192
REMARK  104  A    between atoms: CA_192  and  C_193
REMARK  105  A    between atoms: CA_192  and  CB_195
REMARK  106  A    between atoms: CB_195  and  CG_196
REMARK  107  A    between atoms: CG_196  and  CD_197
REMARK  108  A    between atoms: CD_197  and  NE_198
REMARK  109  A    between atoms: N_202  and  CA_203
REMARK  110  A    between atoms: CA_203  and  C_204
REMARK  111  A    between atoms: CA_203  and  CB_206
REMARK  112  A    between atoms: CB_206  and  CG_207
REMARK  113  A    between atoms: CG_207  and  CD_208
REMARK  114  A    between atoms: N_211  and  CA_212
REMARK  115  A    between atoms: CA_212  and  C_213
REMARK  116  A    between atoms: CA_212  and  CB_215
REMARK  117  A    between atoms: CB_215  and  CG_216
REMARK  118  A    between atoms: CG_216  and  CD_217
REMARK  119  A    between atoms: CD_217  and  CE_218
REMARK  120  A    between atoms: CE_218  and  NZ_219
REMARK  121  A    between atoms: N_220  and  CA_221
REMARK  122  A    between atoms: CA_221  and  C_222
REMARK  123  A    between atoms: CA_221  and  CB_224
REMARK  124  A    between atoms: N_225  and  CA_226
REMARK  125  A    between atoms: CA_226  and  C_227
REMARK  126  A    between atoms: CA_226  and  CB_229
REMARK  127  A    between atoms: CB_229  and  OG_230
REMARK  128  A    between atoms: N_231  and  CA_232
REMARK  129  A    between atoms: CA_232  and  C_233
REMARK  130  A    between atoms: CA_232  and  CB_235
REMARK  131  A    between atoms: CB_235  and  CG_236
REMARK  132  A    between atoms: CG_236  and  CD_237
REMARK  133  A    between atoms: CD_237  and  CE_238
REMARK  134  A    between atoms: CE_238  and  NZ_239
REMARK  135  A    between atoms: N_240  and  CA_241
REMARK  136  A    between atoms: CA_241  and  C_242
REMARK  137  A    between atoms: CA_241  and  CB_244
REMARK  138  A    between atoms: CB_244  and  CG_245
REMARK  139  A    between atoms: N_251  and  CA_252
REMARK  140  A    between atoms: CA_252  and  C_253
REMARK  141  A    between atoms: CA_252  and  CB_255
REMARK  142  A    between atoms: CB_255  and  CG1_256
REMARK  143  A    between atoms: CB_255  and  CG2_257
REMARK  144  A    between atoms: CG1_256  and  CD1_258
REMARK  145  A    between atoms: N_259  and  CA_260
REMARK  146  A    between atoms: CA_260  and  C_261
REMARK  147  A    between atoms: CA_260  and  CB_263
REMARK  148  A    between atoms: CB_263  and  CG_264
REMARK  149  A    between atoms: CG_264  and  CD1_265
REMARK  150  A    between atoms: CG_264  and  CD2_266
REMARK  151  A    between atoms: N_267  and  CA_268
REMARK  152  A    between atoms: CA_268  and  C_269
REMARK  153  A    between atoms: CA_268  and  CB_271
REMARK  154  A    between atoms: N_272  and  CA_273
REMARK  155  A    between atoms: CA_273  and  C_274
REMARK  156  A    between atoms: CA_273  and  CB_276
REMARK  157  A    between atoms: CB_276  and  CG_277
REMARK  158  A    between atoms: CG_277  and  CD2_278
REMARK  159  A    between atoms: CG_277  and  CD1_279
REMARK  160  A    between atoms: N_280  and  CA_281
REMARK  161  A    between atoms: CA_281  and  C_282
REMARK  162  A    between atoms: CA_281  and  CB_284
REMARK  163  A    between atoms: CB_284  and  CG_285
REMARK  164  A    between atoms: CG_285  and  CD_286
REMARK  165  A    between atoms: CD_286  and  CE_287
REMARK  166  A    between atoms: CE_287  and  NZ_288
REMARK  167  A    between atoms: N_289  and  CA_290
REMARK  168  A    between atoms: CA_290  and  C_291
REMARK  169  A    between atoms: CA_290  and  CB_293
REMARK  170  A    between atoms: CB_293  and  CG2_294
REMARK  171  A    between atoms: CB_293  and  CG1_295
REMARK  172  A    between atoms: N_296  and  CA_297
REMARK  173  A    between atoms: CA_297  and  C_298
REMARK  174  A    between atoms: CA_297  and  CB_300
REMARK  175  A    between atoms: CB_300  and  CG_301
REMARK  176  A    between atoms: CG_301  and  CD1_302
REMARK  177  A    between atoms: CG_301  and  CD2_303
REMARK  178  A    between atoms: N_304  and  CA_305
REMARK  179  A    between atoms: CA_305  and  C_306
REMARK  180  A    between atoms: CA_305  and  CB_308
REMARK  181  A    between atoms: CB_308  and  CG_309
REMARK  182  A    between atoms: N_315  and  CA_316
REMARK  183  A    between atoms: CA_316  and  C_317
REMARK  184  A    between atoms: CA_316  and  CB_319
REMARK  185  A    between atoms: CB_319  and  CG_320
REMARK  186  A    between atoms: CG_320  and  CD_321
REMARK  187  A    between atoms: CD_321  and  CE_322
REMARK  188  A    between atoms: CE_322  and  NZ_323
REMARK  189  A    between atoms: N_324  and  CA_325
REMARK  190  A    between atoms: CA_325  and  C_326
REMARK  191  A    between atoms: CA_325  and  CB_328
REMARK  192  A    between atoms: N_329  and  CA_330
REMARK  193  A    between atoms: CA_330  and  C_331
REMARK  194  A    between atoms: CA_330  and  CB_333
REMARK  195  A    between atoms: CB_333  and  CG_334
REMARK  196  A    between atoms: CG_334  and  CD_335
REMARK  197  A    between atoms: N_338  and  CA_339
REMARK  198  A    between atoms: CA_339  and  C_340
REMARK  199  A    between atoms: CA_339  and  CB_342
REMARK  200  A    between atoms: CB_342  and  CG_343
REMARK  201  A    between atoms: CG_343  and  CD1_344
REMARK  202  A    between atoms: CG_343  and  CD2_345
REMARK  203  A    between atoms: N_346  and  CA_347
REMARK  204  A    between atoms: CA_347  and  C_348
REMARK  205  A    between atoms: CA_347  and  CB_350
REMARK  206  A    between atoms: CB_350  and  CG_351
REMARK  207  A    between atoms: CG_351  and  CD_352
REMARK  208  A    between atoms: N_355  and  C_356
REMARK  209  A    between atoms: C_356  and  C_357
REMARK  210  A    between atoms: C_356  and  C_359
REMARK  211  A    between atoms: C_359  and  C_360
REMARK  212  A    between atoms: N_361  and  CA_362
REMARK  213  A    between atoms: CA_362  and  C_363
REMARK  214  A    between atoms: CA_362  and  CB_365
REMARK  215  A    between atoms: N_366  and  CA_367
REMARK  216  A    between atoms: CA_367  and  C_368
REMARK  217  A    between atoms: N_370  and  CA_371
REMARK  218  A    between atoms: CA_371  and  C_372
REMARK  219  A    between atoms: CA_371  and  CB_374
REMARK  220  A    between atoms: CB_374  and  CG2_375
REMARK  221  A    between atoms: CB_374  and  CG1_376
REMARK  222  A    between atoms: N_377  and  CA_378
REMARK  223  A    between atoms: CA_378  and  C_379
REMARK  224  A    between atoms: CA_378  and  CB_381
REMARK  225  A    between atoms: CB_381  and  CG_382
REMARK  226  A    between atoms: CG_382  and  CD_383
REMARK  227  A    between atoms: N_386  and  CA_387
REMARK  228  A    between atoms: CA_387  and  C_388
REMARK  229  A    between atoms: CA_387  and  CB_390
REMARK  230  A    between atoms: CB_390  and  CG_391
REMARK  231  A    between atoms: N_396  and  CA_397
REMARK  232  A    between atoms: CA_397  and  C_398
REMARK  233  A    between atoms: CA_397  and  CB_400
REMARK  234  A    between atoms: CB_400  and  CG_401
REMARK  235  A    between atoms: CG_401  and  CD_402
REMARK  236  A    between atoms: N_405  and  CA_406
REMARK  237  A    between atoms: CA_406  and  C_407
REMARK  238  A    between atoms: CA_406  and  CB_409
REMARK  239  A    between atoms: CB_409  and  CG_410
REMARK  240  A    between atoms: CG_410  and  CD2_411
REMARK  241  A    between atoms: CG_410  and  CD1_412
REMARK  242  A    between atoms: N_413  and  CA_414
REMARK  243  A    between atoms: CA_414  and  C_415
REMARK  244  A    between atoms: CA_414  and  CB_417
REMARK  245  A    between atoms: CB_417  and  CG_418
REMARK  246  A    between atoms: CG_418  and  CD_419
REMARK  247  A    between atoms: CD_419  and  NE_420
REMARK  248  A    between atoms: N_424  and  CA_425
REMARK  249  A    between atoms: CA_425  and  C_426
REMARK  250  A    between atoms: CA_425  and  CB_428
REMARK  251  A    between atoms: CB_428  and  CG_429
REMARK  252  A    between atoms: CG_429  and  CD_430
REMARK  253  A    between atoms: CD_430  and  NE_431
REMARK  254  A    between atoms: N_435  and  CA_436
REMARK  255  A    between atoms: CA_436  and  C_437
REMARK  256  A    between atoms: CA_436  and  CB_439
REMARK  257  A    between atoms: CB_439  and  CG_440
REMARK  258  A    between atoms: CG_440  and  CD_441
REMARK  259  A    between atoms: N_444  and  CA_445
REMARK  260  A    between atoms: CA_445  and  C_446
REMARK  261  A    between atoms: CA_445  and  CB_448
REMARK  262  A    between atoms: CB_448  and  CG1_449
REMARK  263  A    between atoms: CB_448  and  CG2_450
REMARK  264  A    between atoms: N_451  and  C_452
REMARK  265  A    between atoms: C_452  and  C_453
REMARK  266  A    between atoms: C_452  and  C_455
REMARK  267  A    between atoms: C_455  and  C_456
REMARK  268  A    between atoms: N_457  and  CA_458
REMARK  269  A    between atoms: CA_458  and  C_459
REMARK  270  A    between atoms: CA_458  and  CB_461
REMARK  271  A    between atoms: CB_461  and  CG1_462
REMARK  272  A    between atoms: CB_461  and  CG2_463
REMARK  273  A    between atoms: CG1_462  and  CD1_464
REMARK  274  A    between atoms: N_465  and  CA_466
REMARK  275  A    between atoms: CA_466  and  C_467
REMARK  276  A    between atoms: CA_466  and  CB_469
REMARK  277  A    between atoms: CB_469  and  CG_470
REMARK  278  A    between atoms: CG_470  and  CD_471
REMARK  279  A    between atoms: N_474  and  C_475
REMARK  280  A    between atoms: C_475  and  C_476
REMARK  281  A    between atoms: C_475  and  C_478
REMARK  282  A    between atoms: C_478  and  O_479
REMARK  283  A    between atoms: N_480  and  C_481
REMARK  284  A    between atoms: C_481  and  C_482
REMARK  285  A    between atoms: C_481  and  C_484
REMARK  286  A    between atoms: C_484  and  C_485
REMARK  287  A    between atoms: N_490  and  C_491
REMARK  288  A    between atoms: C_491  and  C_492
REMARK  289  A    between atoms: C_491  and  C_494
REMARK  290  A    between atoms: C_494  and  C_495
REMARK  291  A    between atoms: C_495  and  C_496
REMARK  292  A    between atoms: C_495  and  C_497
REMARK  293  A    between atoms: N_498  and  C_499
REMARK  294  A    between atoms: C_499  and  C_500
REMARK  295  A    between atoms: C_499  and  C_502
REMARK  296  A    between atoms: C_502  and  C_503
REMARK  297  A    between atoms: C_503  and  C_504
REMARK  298  A    between atoms: C_504  and  N_505
REMARK  299  A    between atoms: N_509  and  C_510
REMARK  300  A    between atoms: C_510  and  C_511
REMARK  301  A    between atoms: C_510  and  C_513
REMARK  302  A    between atoms: C_513  and  C_514
REMARK  303  A    between atoms: C_520  and  C_521
REMARK  304  A    between atoms: N_526  and  C_527
REMARK  305  A    between atoms: C_527  and  C_528
REMARK  306  A    between atoms: C_527  and  C_530
REMARK  307  A    between atoms: C_530  and  C_531
REMARK  308  A    between atoms: N_534  and  C_535
REMARK  309  A    between atoms: C_535  and  C_536
REMARK  310  A    between atoms: C_535  and  C_538
REMARK  311  A    between atoms: C_538  and  C_539
REMARK  312  A    between atoms: C_538  and  C_540
REMARK  313  A    between atoms: C_539  and  C_541
REMARK  314  A    between atoms: N_542  and  C_543
REMARK  315  A    between atoms: C_543  and  C_544
REMARK  316  A    between atoms: C_543  and  C_546
REMARK  317  A    between atoms: C_546  and  C_547
REMARK  318  A    between atoms: C_547  and  C_548
REMARK  319  A    between atoms: C_547  and  C_549
REMARK  320  A    between atoms: N_550  and  C_551
REMARK  321  A    between atoms: C_551  and  C_552
REMARK  322  A    between atoms: C_551  and  C_554
REMARK  323  A    between atoms: C_554  and  C_555
REMARK  324  A    between atoms: C_555  and  C_556
REMARK  325  A    between atoms: C_556  and  N_557
REMARK  326  A    between atoms: N_561  and  C_562
REMARK  327  A    between atoms: C_562  and  C_567
REMARK  328  A    between atoms: C_563  and  C_564
REMARK  329  A    between atoms: C_568  and  C_569
REMARK  330  A    between atoms: C_568  and  C_571
REMARK  331  A    between atoms: C_569  and  C_572
REMARK  332  A    between atoms: C_569  and  C_573
REMARK  333  A    between atoms: C_570  and  C_573
REMARK  334  A    between atoms: N_574  and  CA_575
REMARK  335  A    between atoms: CA_575  and  C_576
REMARK  336  A    between atoms: CA_575  and  CB_578
REMARK  337  A    between atoms: CB_578  and  CG_579
REMARK  338  A    between atoms: CZ_584  and  OH_585
REMARK  339  A    between atoms: N_586  and  CA_587
REMARK  340  A    between atoms: CA_587  and  C_588
REMARK  341  A    between atoms: N_590  and  CA_591
REMARK  342  A    between atoms: CA_591  and  C_592
REMARK  343  A    between atoms: CA_591  and  CB_594
REMARK  344  A    between atoms: CB_594  and  CG_595
REMARK  345  A    between atoms: CZ_600  and  OH_601
REMARK  346  A    between atoms: N_602  and  CA_603
REMARK  347  A    between atoms: CA_603  and  C_604
REMARK  348  A    between atoms: CA_603  and  CB_606
REMARK  349  A    between atoms: CB_606  and  CG_607
REMARK  350  A    between atoms: N_613  and  CA_614
REMARK  351  A    between atoms: CA_614  and  C_615
REMARK  352  A    between atoms: CA_614  and  CB_617
REMARK  353  A    between atoms: CB_617  and  CG_618
REMARK  354  A    between atoms: N_623  and  CA_624
REMARK  355  A    between atoms: CA_624  and  C_625
REMARK  356  A    between atoms: CA_624  and  CB_627
REMARK  357  A    between atoms: CB_627  and  CG_628
REMARK  358  A    between atoms: N_631  and  CA_632
REMARK  359  A    between atoms: CA_632  and  C_633
REMARK  360  A    between atoms: CA_632  and  CB_635
REMARK  361  A    between atoms: N_636  and  CA_637
REMARK  362  A    between atoms: CA_637  and  C_638
REMARK  363  A    between atoms: CA_637  and  CB_640
REMARK  364  A    between atoms: CB_640  and  OG1_641
REMARK  365  A    between atoms: CB_640  and  CG2_642
REMARK  366  A    between atoms: N_643  and  CA_644
REMARK  367  A    between atoms: CA_644  and  C_645
REMARK  368  A    between atoms: CA_644  and  CB_647
REMARK  369  A    between atoms: CB_647  and  CG_648
REMARK  370  A    between atoms: CG_648  and  CD_649
REMARK  371  A    between atoms: CD_649  and  NE_650
REMARK  372  A    between atoms: N_654  and  CA_655
REMARK  373  A    between atoms: CA_655  and  C_656
REMARK  374  A    between atoms: CA_655  and  CB_658
REMARK  375  A    between atoms: CB_658  and  CG1_659
REMARK  376  A    between atoms: CB_658  and  CG2_660
REMARK  377  A    between atoms: N_661  and  CA_662
REMARK  378  A    between atoms: CA_662  and  C_663
REMARK  379  A    between atoms: CA_662  and  CB_665
REMARK  380  A    between atoms: CB_665  and  CG_666
REMARK  381  A    between atoms: CZ_671  and  OH_672
REMARK  382  A    between atoms: N_673  and  CA_674
REMARK  383  A    between atoms: CA_674  and  C_675
REMARK  384  A    between atoms: CA_674  and  CB_677
REMARK  385  A    between atoms: CB_677  and  CG_678
REMARK  386  A    between atoms: CG_678  and  CD2_679
REMARK  387  A    between atoms: CG_678  and  CD1_680
REMARK  388  A    between atoms: N_681  and  CA_682
REMARK  389  A    between atoms: CA_682  and  C_683
REMARK  390  A    between atoms: CA_682  and  CB_685
REMARK  391  A    between atoms: CB_685  and  CG1_686
REMARK  392  A    between atoms: CB_685  and  CG2_687
REMARK  393  A    between atoms: CG1_686  and  CD1_688
REMARK  394  A    between atoms: N_689  and  CA_690
REMARK  395  A    between atoms: CA_690  and  C_691
REMARK  396  A    between atoms: CA_690  and  CB_693
REMARK  397  A    between atoms: CB_693  and  CG_694
REMARK  398  A    between atoms: CG_694  and  CD2_695
REMARK  399  A    between atoms: CG_694  and  CD1_696
REMARK  400  A    between atoms: N_697  and  CA_698
REMARK  401  A    between atoms: CA_698  and  C_699
REMARK  402  A    between atoms: CA_698  and  CB_701
REMARK  403  A    between atoms: CB_701  and  CG_702
REMARK  404  A    between atoms: CG_702  and  CD_703
REMARK  405  A    between atoms: N_706  and  CA_707
REMARK  406  A    between atoms: CA_707  and  C_708
REMARK  407  A    between atoms: CA_707  and  CB_710
REMARK  408  A    between atoms: CB_710  and  CG_711
REMARK  409  A    between atoms: CZ_716  and  OH_717
REMARK  410  A    between atoms: N_718  and  CA_719
REMARK  411  A    between atoms: CA_719  and  C_720
REMARK  412  A    between atoms: CA_719  and  CB_722
REMARK  413  A    between atoms: CA_724  and  C_725
REMARK  414  A    between atoms: N_730  and  CA_731
REMARK  415  A    between atoms: CA_731  and  C_732
REMARK  416  A    between atoms: CA_731  and  CB_734
REMARK  417  A    between atoms: CB_734  and  CG_735
REMARK  418  A    between atoms: CG_735  and  CD1_736
REMARK  419  A    between atoms: CG_735  and  CD2_737
REMARK  420  A    between atoms: N_738  and  CA_739
REMARK  421  A    between atoms: CA_739  and  C_740
REMARK  422  A    between atoms: N_742  and  CA_743
REMARK  423  A    between atoms: CA_743  and  C_744
REMARK  424  A    between atoms: CA_743  and  CB_746
REMARK  425  A    between atoms: CB_746  and  OG1_747
REMARK  426  A    between atoms: CB_746  and  CG2_748
REMARK  427  A    between atoms: N_749  and  CA_750
REMARK  428  A    between atoms: CA_750  and  C_751
REMARK  429  A    between atoms: CA_750  and  CB_753
REMARK  430  A    between atoms: CB_753  and  CG2_754
REMARK  431  A    between atoms: CB_753  and  CG1_755
REMARK  432  A    between atoms: N_756  and  CA_757
REMARK  433  A    between atoms: CA_757  and  C_758
REMARK  434  A    between atoms: CA_757  and  CB_760
REMARK  435  A    between atoms: CB_760  and  CG_761
REMARK  436  A    between atoms: CZ_766  and  OH_767
REMARK  437  A    between atoms: N_768  and  C_769
REMARK  438  A    between atoms: C_769  and  C_770
REMARK  439  A    between atoms: C_769  and  C_772
REMARK  440  A    between atoms: C_772  and  C_773
REMARK  441  A    between atoms: N_774  and  CA_775
REMARK  442  A    between atoms: CA_775  and  C_776
REMARK  443  A    between atoms: CA_775  and  CB_778
REMARK  444  A    between atoms: CB_778  and  CG_779
REMARK  445  A    between atoms: CG_779  and  CD_780
REMARK  446  A    between atoms: N_783  and  CA_784
REMARK  447  A    between atoms: CA_784  and  C_785
REMARK  448  A    between atoms: CA_784  and  CB_787
REMARK  449  A    between atoms: CB_787  and  CG_788
REMARK  450  A    between atoms: CG_788  and  CD2_789
REMARK  451  A    between atoms: CG_788  and  CD1_790
REMARK  452  A    between atoms: N_791  and  CA_792
REMARK  453  A    between atoms: CA_792  and  C_793
REMARK  454  A    between atoms: CA_792  and  CB_795
REMARK  455  A    between atoms: CB_795  and  CG_796
REMARK  456  A    between atoms: CG_796  and  CD_797
REMARK  457  A    between atoms: N_800  and  CA_801
REMARK  458  A    between atoms: CA_801  and  C_802
REMARK  459  A    between atoms: CA_801  and  CB_804
REMARK  460  A    between atoms: CB_804  and  CG_805
REMARK  461  A    between atoms: CG_805  and  CD_806
REMARK  462  A    between atoms: CD_806  and  CE_807
REMARK  463  A    between atoms: CE_807  and  NZ_808
REMARK  464  A    between atoms: N_809  and  CA_810
REMARK  465  A    between atoms: CA_810  and  C_811
REMARK  466  A    between atoms: CA_810  and  CB_813
REMARK  467  A    between atoms: CB_813  and  CG_814
REMARK  468  A    between atoms: CG_814  and  CD1_815
REMARK  469  A    between atoms: CG_814  and  CD2_816
REMARK  470  A    between atoms: N_817  and  CA_818
REMARK  471  A    between atoms: CA_818  and  C_819
REMARK  472  A    between atoms: CA_818  and  CB_821
REMARK  473  A    between atoms: CB_821  and  OG_822
REMARK  474  A    between atoms: N_823  and  CA_824
REMARK  475  A    between atoms: CA_824  and  C_825
REMARK  476  A    between atoms: CA_824  and  CB_827
REMARK  477  A    between atoms: CB_827  and  CG_828
REMARK  478  A    between atoms: CG_828  and  CD_829
REMARK  479  A    between atoms: CD_829  and  CE_830
REMARK  480  A    between atoms: CE_830  and  NZ_831
REMARK  481  A    between atoms: N_832  and  CA_833
REMARK  482  A    between atoms: CA_833  and  C_834
REMARK  483  A    between atoms: CA_833  and  CB_836
REMARK  484  A    between atoms: CB_836  and  CG_837
REMARK  485  A    between atoms: N_843  and  CA_844
REMARK  486  A    between atoms: CA_844  and  C_845
REMARK  487  A    between atoms: CA_844  and  CB_847
REMARK  488  A    between atoms: CB_847  and  CG_848
REMARK  489  A    between atoms: N_851  and  CA_852
REMARK  490  A    between atoms: CA_852  and  C_853
REMARK  491  A    between atoms: CA_852  and  CB_855
REMARK  492  A    between atoms: CB_855  and  CG_856
REMARK  493  A    between atoms: CG_856  and  CD_857
REMARK  494  A    between atoms: N_860  and  CA_861
REMARK  495  A    between atoms: CA_861  and  C_862
REMARK  496  A    between atoms: CA_861  and  CB_864
REMARK  497  A    between atoms: CB_864  and  CG_865
REMARK  498  A    between atoms: CG_865  and  CD_866
REMARK  499  A    between atoms: N_869  and  CA_870
REMARK  500  A    between atoms: CA_870  and  C_871
REMARK  501  A    between atoms: CA_870  and  CB_873
REMARK  502  A    between atoms: CB_873  and  CG_874
REMARK  503  A    between atoms: CG_874  and  CD_875
REMARK  504  A    between atoms: CD_875  and  NE_876
REMARK  505  A    between atoms: N_880  and  CA_881
REMARK  506  A    between atoms: CA_881  and  C_882
REMARK  507  A    between atoms: CA_881  and  CB_884
REMARK  508  A    between atoms: CB_884  and  OG1_885
REMARK  509  A    between atoms: CB_884  and  CG2_886
REMARK  510  A    between atoms: N_887  and  CA_888
REMARK  511  A    between atoms: CA_888  and  C_889
REMARK  512  A    between atoms: CA_888  and  CB_891
REMARK  513  A    between atoms: N_892  and  CA_893
REMARK  514  A    between atoms: CA_893  and  C_894
REMARK  515  A    between atoms: CA_893  and  CB_896
REMARK  516  A    between atoms: CB_896  and  OG1_897
REMARK  517  A    between atoms: CB_896  and  CG2_898
REMARK  518  A    between atoms: N_899  and  CA_900
REMARK  519  A    between atoms: CA_900  and  C_901
REMARK  520  A    between atoms: CA_900  and  CB_903
REMARK  521  A    between atoms: CB_903  and  CG_904
REMARK  522  A    between atoms: CZ_909  and  OH_910
REMARK  523  A    between atoms: N_911  and  CA_912
REMARK  524  A    between atoms: CA_912  and  C_913
REMARK  525  A    between atoms: CA_912  and  CB_915
REMARK  526  A    between atoms: CB_915  and  CG1_916
REMARK  527  A    between atoms: CB_915  and  CG2_917
REMARK  528  A    between atoms: CG1_916  and  CD1_918
REMARK  529  A    between atoms: N_919  and  CA_920
REMARK  530  A    between atoms: CA_920  and  C_921
REMARK  531  A    between atoms: CA_920  and  CB_923
REMARK  532  A    between atoms: CB_923  and  OG1_924
REMARK  533  A    between atoms: CB_923  and  CG2_925
REMARK  534  A    between atoms: N_926  and  CA_927
REMARK  535  A    between atoms: CA_927  and  C_928
REMARK  536  A    between atoms: CA_927  and  CB_930
REMARK  537  A    between atoms: CB_930  and  CG_931
REMARK  538  A    between atoms: CG_931  and  CD_932
REMARK  539  A    between atoms: N_935  and  CA_936
REMARK  540  A    between atoms: CA_936  and  C_937
REMARK  541  A    between atoms: CA_936  and  CB_939
REMARK  542  A    between atoms: CB_939  and  CG_940
REMARK  543  A    between atoms: CG_940  and  CD2_941
REMARK  544  A    between atoms: CG_940  and  CD1_942
REMARK  545  A    between atoms: N_943  and  CA_944
REMARK  546  A    between atoms: CA_944  and  C_945
REMARK  547  A    between atoms: CA_944  and  CB_947
REMARK  548  A    between atoms: N_948  and  CA_949
REMARK  549  A    between atoms: CA_949  and  C_950
REMARK  550  A    between atoms: CA_949  and  CB_952
REMARK  551  A    between atoms: CB_952  and  CG_953
REMARK  552  A    between atoms: N_956  and  CA_957
REMARK  553  A    between atoms: CA_957  and  C_958
REMARK  554  A    between atoms: CA_957  and  CB_960
REMARK  555  A    between atoms: N_961  and  CA_962
REMARK  556  A    between atoms: CA_962  and  C_963
REMARK  557  A    between atoms: CA_962  and  CB_965
REMARK  558  A    between atoms: CB_965  and  CG_966
REMARK  559  A    between atoms: CG_966  and  CD2_967
REMARK  560  A    between atoms: CG_966  and  CD1_968
REMARK  561  A    between atoms: N_969  and  CA_970
REMARK  562  A    between atoms: CA_970  and  C_971
REMARK  563  A    between atoms: CA_970  and  CB_973
REMARK  564  A    between atoms: CB_973  and  OG_974
REMARK  565  A    between atoms: N_975  and  CA_976
REMARK  566  A    between atoms: CA_976  and  C_977
REMARK  567  A    between atoms: CA_976  and  CB_979
REMARK  568  A    between atoms: CB_979  and  CG_980
REMARK  569  A    between atoms: CZ_985  and  OH_986
REMARK  570  A    between atoms: N_987  and  CA_988
REMARK  571  A    between atoms: CA_988  and  C_989
REMARK  572  A    between atoms: CA_988  and  CB_991
REMARK  573  A    between atoms: CB_991  and  SG_992
REMARK  574  A    between atoms: N_993  and  CA_994
REMARK  575  A    between atoms: CA_994  and  C_995
REMARK  576  A    between atoms: CA_994  and  CB_997
REMARK  577  A    between atoms: CB_997  and  CG_998
REMARK  578  A    between atoms: N_1003  and  C_1004
REMARK  579  A    between atoms: C_1004  and  C_1005
REMARK  580  A    between atoms: C_1004  and  C_1007
REMARK  581  A    between atoms: C_1007  and  O_1008
REMARK  582  A    between atoms: N_1009  and  C_1010
REMARK  583  A    between atoms: C_1010  and  C_1011
REMARK  584  A    between atoms: C_1010  and  C_1013
REMARK  585  A    between atoms: C_1013  and  C_1014
REMARK  586  A    between atoms: C_1014  and  C_1015
REMARK  587  A    between atoms: C_1015  and  C_1016
REMARK  588  A    between atoms: C_1016  and  N_1017
REMARK  589  A    between atoms: N_1018  and  C_1019
REMARK  590  A    between atoms: C_1020  and  C_1021
REMARK  591  A    between atoms: C_1020  and  C_1024
REMARK  592  A    between atoms: C_1023  and  C_1026
REMARK  593  A    between atoms: C_1025  and  C_1026
REMARK  594  A    between atoms: C_1027  and  N_1029
REMARK  595  A    between atoms: C_1028  and  N_1030
REMARK  596  A    between atoms: N_1037  and  C_1038
REMARK  597  A    between atoms: C_1038  and  C_1039
REMARK  598  A    between atoms: C_1038  and  C_1041
REMARK  599  A    between atoms: C_1041  and  C_1042
REMARK  600  A    between atoms: C_1041  and  C_1043
REMARK  601  A    between atoms: N_1044  and  C_1045
REMARK  602  A    between atoms: C_1045  and  C_1046
REMARK  603  A    between atoms: C_1045  and  C_1048
REMARK  604  A    between atoms: C_1048  and  C_1049
REMARK  605  A    between atoms: C_1048  and  C_1050
REMARK  606  A    between atoms: C_1049  and  C_1051
REMARK  607  A    between atoms: N_1052  and  C_1053
REMARK  608  A    between atoms: C_1053  and  C_1054
REMARK  609  A    between atoms: C_1053  and  C_1056
REMARK  610  A    between atoms: C_1056  and  C_1057
REMARK  611  A    between atoms: N_1062  and  C_1063
REMARK  612  A    between atoms: C_1063  and  C_1064
REMARK  613  A    between atoms: C_1063  and  C_1066
REMARK  614  A    between atoms: C_1066  and  C_1067
REMARK  615  A    between atoms: C_1067  and  C_1068
REMARK  616  A    between atoms: C_1068  and  N_1069
REMARK  617  A    between atoms: N_1073  and  C_1074
REMARK  618  A    between atoms: C_1074  and  C_1077
REMARK  619  A    between atoms: C_1077  and  C_1078
REMARK  620  A    between atoms: N_1081  and  C_1084
REMARK  621  A    between atoms: C_1083  and  C_1085
REMARK  622  A    between atoms: C_1085  and  C_1086
REMARK  623  A    between atoms: C_1085  and  O_1087
REMARK  624  A    between atoms: C_1085  and  N_1097
REMARK  625  A    between atoms: C_1089  and  C_1094
REMARK  626  A    between atoms: C_1090  and  C_1091
REMARK  627  A    between atoms: C_1093  and  C_1094
REMARK  628  A    between atoms: C_1098  and  C_1099
REMARK  629  A    between atoms: C_1098  and  C_1101
REMARK  630  A    between atoms: C_1101  and  C_1102
REMARK  631  A    between atoms: C_1102  and  C_1103
REMARK  632  A    between atoms: C_1103  and  C_1104
REMARK  633  A    between atoms: C_1104  and  N_1105
REMARK  634  A    between atoms: C_1107  and  C_1108
REMARK  635  A    between atoms: N_1113  and  CA_1114
REMARK  636  A    between atoms: CA_1114  and  C_1115
REMARK  637  A    between atoms: CA_1114  and  CB_1117
REMARK  638  A    between atoms: CB_1117  and  CG_1118
REMARK  639  A    between atoms: CG_1118  and  CD_1119
REMARK  640  A    between atoms: N_1122  and  CA_1123
REMARK  641  A    between atoms: CA_1123  and  C_1124
REMARK  642  A    between atoms: CA_1123  and  CB_1126
REMARK  643  A    between atoms: CB_1126  and  CG_1127
REMARK  644  A    between atoms: N_1130  and  CA_1131
REMARK  645  A    between atoms: CA_1131  and  C_1132
REMARK  646  A    between atoms: CA_1131  and  CB_1134
REMARK  647  A    between atoms: CB_1134  and  CG_1135
REMARK  648  A    between atoms: CG_1135  and  CD2_1136
REMARK  649  A    between atoms: CG_1135  and  CD1_1137
REMARK  650  A    between atoms: N_1138  and  CA_1139
REMARK  651  A    between atoms: CA_1139  and  C_1140
REMARK  652  A    between atoms: CA_1139  and  CB_1142
REMARK  653  A    between atoms: CB_1142  and  CG_1143
REMARK  654  A    between atoms: CG_1143  and  CD1_1144
REMARK  655  A    between atoms: CG_1143  and  CD2_1145
REMARK  656  A    between atoms: N_1146  and  CA_1147
REMARK  657  A    between atoms: CA_1147  and  C_1148
REMARK  658  A    between atoms: CA_1147  and  CB_1150
REMARK  659  A    between atoms: CB_1150  and  CG_1151
REMARK  660  A    between atoms: CG_1151  and  CD2_1152
REMARK  661  A    between atoms: CG_1151  and  CD1_1153
REMARK  662  A    between atoms: N_1154  and  CA_1155
REMARK  663  A    between atoms: CA_1155  and  C_1156
REMARK  664  A    between atoms: N_1158  and  CA_1159
REMARK  665  A    between atoms: CA_1159  and  C_1160
REMARK  666  A    between atoms: CA_1159  and  CB_1162
REMARK  667  A    between atoms: CB_1162  and  OG_1163
REMARK  668  A    between atoms: N_1164  and  CA_1165
REMARK  669  A    between atoms: CA_1165  and  C_1166
REMARK  670  A    between atoms: CA_1165  and  CB_1168
REMARK  671  A    between atoms: N_1169  and  CA_1170
REMARK  672  A    between atoms: CA_1170  and  C_1171
REMARK  673  A    between atoms: N_1173  and  CA_1174
REMARK  674  A    between atoms: CA_1174  and  C_1175
REMARK  675  A    between atoms: CA_1174  and  CB_1177
REMARK  676  A    between atoms: CB_1177  and  CG_1178
REMARK  677  A    between atoms: CG_1178  and  CD_1179
REMARK  678  A    between atoms: N_1182  and  CA_1183
REMARK  679  A    between atoms: CA_1183  and  C_1184
REMARK  680  A    between atoms: CA_1183  and  CB_1186
REMARK  681  A    between atoms: CB_1186  and  CG_1187
REMARK  682  A    between atoms: CG_1187  and  CD2_1188
REMARK  683  A    between atoms: CG_1187  and  CD1_1189
REMARK  684  A    between atoms: N_1190  and  CA_1191
REMARK  685  A    between atoms: CA_1191  and  C_1192
REMARK  686  A    between atoms: CA_1191  and  CB_1194
REMARK  687  A    between atoms: CB_1194  and  CG_1195
REMARK  688  A    between atoms: CG_1195  and  CD_1196
REMARK  689  A    between atoms: CD_1196  and  CE_1197
REMARK  690  A    between atoms: CE_1197  and  NZ_1198
REMARK  691  A    between atoms: N_1199  and  CA_1200
REMARK  692  A    between atoms: CA_1200  and  C_1201
REMARK  693  A    between atoms: CA_1200  and  CB_1203
REMARK  694  A    between atoms: CB_1203  and  CG1_1204
REMARK  695  A    between atoms: CB_1203  and  CG2_1205
REMARK  696  A    between atoms: CG1_1204  and  CD1_1206
REMARK  697  A    between atoms: N_1207  and  CA_1208
REMARK  698  A    between atoms: CA_1208  and  C_1209
REMARK  699  A    between atoms: CA_1208  and  CB_1211
REMARK  700  A    between atoms: N_1212  and  CA_1213
REMARK  701  A    between atoms: CA_1213  and  C_1214
REMARK  702  A    between atoms: CA_1213  and  CB_1216
REMARK  703  A    between atoms: CB_1216  and  CG_1217
REMARK  704  A    between atoms: N_1220  and  CA_1221
REMARK  705  A    between atoms: CA_1221  and  C_1222
REMARK  706  A    between atoms: CA_1221  and  CB_1224
REMARK  707  A    between atoms: CB_1224  and  CG_1225
REMARK  708  A    between atoms: N_1231  and  CA_1232
REMARK  709  A    between atoms: CA_1232  and  C_1233
REMARK  710  A    between atoms: N_1235  and  CA_1236
REMARK  711  A    between atoms: CA_1236  and  C_1237
REMARK  712  A    between atoms: CA_1236  and  CB_1239
REMARK  713  A    between atoms: CB_1239  and  CG_1240
REMARK  714  A    between atoms: N_1249  and  CA_1250
REMARK  715  A    between atoms: CA_1250  and  C_1251
REMARK  716  A    between atoms: CA_1250  and  CB_1253
REMARK  717  A    between atoms: CB_1253  and  OG_1254
REMARK  718  A    between atoms: N_1255  and  CA_1256
REMARK  719  A    between atoms: CA_1256  and  C_1257
REMARK  720  A    between atoms: CA_1256  and  CB_1259
REMARK  721  A    between atoms: CB_1259  and  CG2_1260
REMARK  722  A    between atoms: CB_1259  and  CG1_1261
REMARK  723  A    between atoms: N_1262  and  CA_1263
REMARK  724  A    between atoms: CA_1263  and  C_1264
REMARK  725  A    between atoms: CA_1263  and  CB_1266
REMARK  726  A    between atoms: CB_1266  and  CG_1267
REMARK  727  A    between atoms: N_1272  and  CA_1273
REMARK  728  A    between atoms: CA_1273  and  C_1274
REMARK  729  A    between atoms: CA_1273  and  CB_1276
REMARK  730  A    between atoms: CA_1278  and  C_1279
REMARK  731  A    between atoms: N_1284  and  CA_1285
REMARK  732  A    between atoms: CA_1285  and  C_1286
REMARK  733  A    between atoms: CA_1285  and  CB_1288
REMARK  734  A    between atoms: CB_1288  and  OG_1289
REMARK  735  A    between atoms: N_1290  and  CA_1291
REMARK  736  A    between atoms: CA_1291  and  C_1292
REMARK  737  A    between atoms: CA_1291  and  CB_1294
REMARK  738  A    between atoms: CB_1294  and  OG_1295
REMARK  739  A    between atoms: N_1296  and  C_1297
REMARK  740  A    between atoms: C_1297  and  C_1298
REMARK  741  A    between atoms: C_1297  and  C_1300
REMARK  742  A    between atoms: C_1300  and  C_1301
REMARK  743  A    between atoms: C_1301  and  C_1302
REMARK  744  A    between atoms: N_1303  and  CA_1304
REMARK  745  A    between atoms: CA_1304  and  C_1305
REMARK  746  A    between atoms: CA_1304  and  CB_1307
REMARK  747  A    between atoms: CB_1307  and  CG_1308
REMARK  748  A    between atoms: CG_1308  and  CD_1309
REMARK  749  A    between atoms: CD_1309  and  NE_1310
REMARK  750  A    between atoms: N_1314  and  CA_1315
REMARK  751  A    between atoms: CA_1315  and  C_1316
REMARK  752  A    between atoms: CA_1315  and  CB_1318
REMARK  753  A    between atoms: CB_1318  and  OG1_1319
REMARK  754  A    between atoms: CB_1318  and  CG2_1320
REMARK  755  A    between atoms: N_1321  and  C_1322
REMARK  756  A    between atoms: C_1322  and  C_1323
REMARK  757  A    between atoms: C_1322  and  C_1325
REMARK  758  A    between atoms: C_1325  and  C_1326
REMARK  759  A    between atoms: C_1326  and  C_1327
REMARK  760  A    between atoms: C_1326  and  C_1328
REMARK  761  A    between atoms: N_1329  and  C_1330
REMARK  762  A    between atoms: C_1330  and  C_1331
REMARK  763  A    between atoms: C_1330  and  C_1333
REMARK  764  A    between atoms: N_1334  and  C_1335
REMARK  765  A    between atoms: C_1335  and  C_1336
REMARK  766  A    between atoms: N_1338  and  C_1339
REMARK  767  A    between atoms: C_1339  and  C_1340
REMARK  768  A    between atoms: C_1339  and  C_1342
REMARK  769  A    between atoms: C_1342  and  O_1343
REMARK  770  A    between atoms: C_1342  and  C_1344
REMARK  771  A    between atoms: N_1345  and  C_1346
REMARK  772  A    between atoms: C_1346  and  C_1347
REMARK  773  A    between atoms: C_1346  and  C_1349
REMARK  774  A    between atoms: C_1349  and  C_1350
REMARK  775  A    between atoms: C_1350  and  C_1351
REMARK  776  A    between atoms: C_1350  and  C_1352
REMARK  777  A    between atoms: N_1353  and  C_1354
REMARK  778  A    between atoms: C_1354  and  C_1355
REMARK  779  A    between atoms: C_1354  and  C_1357
REMARK  780  A    between atoms: C_1357  and  C_1358
REMARK  781  A    between atoms: N_1361  and  C_1362
REMARK  782  A    between atoms: C_1362  and  C_1363
REMARK  783  A    between atoms: C_1362  and  C_1365
REMARK  784  A    between atoms: C_1365  and  C_1366
REMARK  785  A    between atoms: C_1371  and  O_1372
REMARK  786  A    between atoms: N_1373  and  C_1374
REMARK  787  A    between atoms: C_1374  and  C_1375
REMARK  788  A    between atoms: C_1374  and  C_1377
REMARK  789  A    between atoms: C_1377  and  C_1378
REMARK  790  A    between atoms: C_1378  and  C_1379
REMARK  791  A    between atoms: C_1378  and  C_1380
REMARK  792  A    between atoms: C_1382  and  C_1383
REMARK  793  A    between atoms: C_1389  and  C_1390
REMARK  794  A    between atoms: N_1395  and  C_1396
REMARK  795  A    between atoms: C_1396  and  C_1399
REMARK  796  A    between atoms: C_1399  and  C_1400
REMARK  797  A    between atoms: C_1400  and  C_1401
REMARK  798  A    between atoms: N_1405  and  C_1406
REMARK  799  A    between atoms: C_1407  and  C_1412
REMARK  800  A    between atoms: C_1408  and  O_1410
REMARK  801  A    between atoms: C_1409  and  O_1411
REMARK  802  A    between atoms: O_1410  and  O_1411
REMARK  803  A    between atoms: C_1412  and  C_1414
REMARK  804  A    between atoms: C_1413  and  C_1415
REMARK  805  A    between atoms: S_1416  and  C_1418
REMARK  806  A    between atoms: S_1417  and  C_1419
REMARK  807  A    between atoms: C_1418  and  C_1419
REMARK  808  A    between atoms: N_1420  and  CA_1421
REMARK  809  A    between atoms: CA_1421  and  C_1422
REMARK  810  A    between atoms: CA_1421  and  CB_1424
REMARK  811  A    between atoms: CB_1424  and  CG1_1425
REMARK  812  A    between atoms: CB_1424  and  CG2_1426
REMARK  813  A    between atoms: CG1_1425  and  CD1_1427
REMARK  814  A    between atoms: N_1428  and  CA_1429
REMARK  815  A    between atoms: CA_1429  and  C_1430
REMARK  816  A    between atoms: CA_1429  and  CB_1432
REMARK  817  A    between atoms: CB_1432  and  CG_1433
REMARK  818  A    between atoms: CG_1433  and  CD_1434
REMARK  819  A    between atoms: N_1437  and  CA_1438
REMARK  820  A    between atoms: CA_1438  and  C_1439
REMARK  821  A    between atoms: N_1441  and  CA_1442
REMARK  822  A    between atoms: CA_1442  and  C_1443
REMARK  823  A    between atoms: CA_1442  and  CB_1445
REMARK  824  A    between atoms: CB_1445  and  CG_1446
REMARK  825  A    between atoms: CG_1446  and  CD_1447
REMARK  826  A    between atoms: CD_1447  and  NE_1448
REMARK  827  A    between atoms: N_1452  and  C_1453
REMARK  828  A    between atoms: C_1453  and  C_1454
REMARK  829  A    between atoms: C_1453  and  C_1456
REMARK  830  A    between atoms: C_1456  and  C_1457
REMARK  831  A    between atoms: C_1457  and  S_1458
REMARK  832  A    between atoms: N_1459  and  CA_1460
REMARK  833  A    between atoms: CA_1460  and  C_1461
REMARK  834  A    between atoms: CA_1460  and  CB_1463
REMARK  835  A    between atoms: CB_1463  and  CG_1464
REMARK  836  A    between atoms: N_1469  and  CA_1470
REMARK  837  A    between atoms: CA_1470  and  C_1471
REMARK  838  A    between atoms: CA_1470  and  CB_1473
REMARK  839  A    between atoms: CB_1473  and  CG_1474
REMARK  840  A    between atoms: N_1477  and  CA_1478
REMARK  841  A    between atoms: CA_1478  and  C_1479
REMARK  842  A    between atoms: CA_1478  and  CB_1481
REMARK  843  A    between atoms: CB_1481  and  CG_1482
REMARK  844  A    between atoms: CG_1482  and  CD_1483
REMARK  845  A    between atoms: N_1486  and  CA_1487
REMARK  846  A    between atoms: CA_1487  and  C_1488
REMARK  847  A    between atoms: CA_1487  and  CB_1490
REMARK  848  A    between atoms: CB_1490  and  CG_1491
REMARK  849  A    between atoms: CG_1491  and  CD_1492
REMARK  850  A    between atoms: CD_1492  and  CE_1493
REMARK  851  A    between atoms: CE_1493  and  NZ_1494
REMARK  852  A    between atoms: N_1495  and  CA_1496
REMARK  853  A    between atoms: CA_1496  and  C_1497
REMARK  854  A    between atoms: CA_1496  and  CB_1499
REMARK  855  A    between atoms: CB_1499  and  CG2_1500
REMARK  856  A    between atoms: CB_1499  and  CG1_1501
REMARK  857  A    between atoms: N_1502  and  CA_1503
REMARK  858  A    between atoms: CA_1503  and  C_1504
REMARK  859  A    between atoms: CA_1503  and  CB_1506
REMARK  860  A    between atoms: CB_1506  and  CG_1507
REMARK  861  A    between atoms: N_1510  and  CA_1511
REMARK  862  A    between atoms: CA_1511  and  C_1512
REMARK  863  A    between atoms: CA_1511  and  CB_1514
REMARK  864  A    between atoms: CB_1514  and  CG_1515
REMARK  865  A    between atoms: CG_1515  and  CD2_1516
REMARK  866  A    between atoms: CG_1515  and  CD1_1517
REMARK  867  A    between atoms: N_1518  and  CA_1519
REMARK  868  A    between atoms: CA_1519  and  C_1520
REMARK  869  A    between atoms: CA_1519  and  CB_1522
REMARK  870  A    between atoms: CB_1522  and  CG_1523
REMARK  871  A    between atoms: N_1532  and  CA_1533
REMARK  872  A    between atoms: CA_1533  and  C_1534
REMARK  873  A    between atoms: CA_1533  and  CB_1536
REMARK  874  A    between atoms: CB_1536  and  OG_1537
REMARK  875  A    between atoms: N_1538  and  CA_1539
REMARK  876  A    between atoms: CA_1539  and  C_1540
REMARK  877  A    between atoms: CA_1539  and  CB_1542
REMARK  878  A    between atoms: CB_1542  and  CG_1543
REMARK  879  A    between atoms: CG_1543  and  CD2_1544
REMARK  880  A    between atoms: CG_1543  and  CD1_1545
REMARK  881  A    between atoms: N_1546  and  CA_1547
REMARK  882  A    between atoms: CA_1547  and  C_1548
REMARK  883  A    between atoms: N_1550  and  CA_1551
REMARK  884  A    between atoms: CA_1551  and  C_1552
REMARK  885  A    between atoms: CA_1551  and  CB_1554
REMARK  886  A    between atoms: CB_1554  and  CG2_1555
REMARK  887  A    between atoms: CB_1554  and  CG1_1556
REMARK  888  A    between atoms: N_1557  and  CA_1558
REMARK  889  A    between atoms: CA_1558  and  C_1559
REMARK  890  A    between atoms: CA_1558  and  CB_1561
REMARK  891  A    between atoms: CB_1561  and  CG_1562
REMARK  892  A    between atoms: CG_1562  and  CD1_1563
REMARK  893  A    between atoms: CG_1562  and  CD2_1564
REMARK  894  A    between atoms: N_1565  and  CA_1566
REMARK  895  A    between atoms: CA_1566  and  C_1567
REMARK  896  A    between atoms: CA_1566  and  CB_1569
REMARK  897  A    between atoms: CB_1569  and  SG_1570
REMARK  898  A    between atoms: N_1571  and  CA_1572
REMARK  899  A    between atoms: CA_1572  and  C_1573
REMARK  900  A    between atoms: CA_1572  and  CB_1575
REMARK  901  A    between atoms: CB_1575  and  CG_1576
REMARK  902  A    between atoms: CZ_1581  and  OH_1582
REMARK  903  A    between atoms: N_1583  and  CA_1584
REMARK  904  A    between atoms: CA_1584  and  C_1585
REMARK  905  A    between atoms: CA_1584  and  CB_1587
REMARK  906  A    between atoms: CB_1587  and  CG_1588
REMARK  907  A    between atoms: CG_1588  and  CD_1589
REMARK  908  A    between atoms: N_1592  and  CA_1593
REMARK  909  A    between atoms: CA_1593  and  C_1594
REMARK  910  A    between atoms: CA_1593  and  CB_1596
REMARK  911  A    between atoms: CB_1596  and  CG_1597
REMARK  912  A    between atoms: N_1603  and  CA_1604
REMARK  913  A    between atoms: CA_1604  and  C_1605
REMARK  914  A    between atoms: CA_1604  and  CB_1607
REMARK  915  A    between atoms: CB_1607  and  CG_1608
REMARK  916  A    between atoms: CG_1608  and  CD1_1609
REMARK  917  A    between atoms: CG_1608  and  CD2_1610
REMARK  918  A    between atoms: N_1611  and  CA_1612
REMARK  919  A    between atoms: CA_1612  and  C_1613
REMARK  920  A    between atoms: CA_1612  and  CB_1615
REMARK  921  A    between atoms: CB_1615  and  CG2_1616
REMARK  922  A    between atoms: CB_1615  and  CG1_1617
REMARK  923  A    between atoms: N_1618  and  CA_1619
REMARK  924  A    between atoms: CA_1619  and  C_1620
REMARK  925  A    between atoms: N_1622  and  C_1623
REMARK  926  A    between atoms: C_1623  and  C_1624
REMARK  927  A    between atoms: C_1623  and  C_1626
REMARK  928  A    between atoms: C_1626  and  C_1627
REMARK  929  A    between atoms: C_1627  and  C_1628
REMARK  930  A    between atoms: CA_1630  and  C_1631
REMARK  931  A    between atoms: CA_1637  and  C_1638
REMARK  932  A    between atoms: N_1643  and  CA_1644
REMARK  933  A    between atoms: CA_1644  and  C_1645
REMARK  934  A    between atoms: CA_1644  and  CB_1647
REMARK  935  A    between atoms: CB_1647  and  CG_1648
REMARK  936  A    between atoms: N_1654  and  CA_1655
REMARK  937  A    between atoms: CA_1655  and  C_1656
REMARK  938  A    between atoms: CA_1655  and  CB_1658
REMARK  939  A    between atoms: CB_1658  and  CG_1659
REMARK  940  A    between atoms: CG_1659  and  CD_1660
REMARK  941  A    between atoms: N_1663  and  CA_1664
REMARK  942  A    between atoms: CA_1664  and  C_1665
REMARK  943  A    between atoms: CA_1664  and  CB_1667
REMARK  944  A    between atoms: N_1668  and  CA_1669
REMARK  945  A    between atoms: CA_1669  and  C_1670
REMARK  946  A    between atoms: CA_1669  and  CB_1672
REMARK  947  A    between atoms: CB_1672  and  CG_1673
REMARK  948  A    between atoms: N_1676  and  CA_1677
REMARK  949  A    between atoms: CA_1677  and  C_1678
REMARK  950  A    between atoms: CA_1677  and  CB_1680
REMARK  951  A    between atoms: CB_1680  and  OG1_1681
REMARK  952  A    between atoms: CB_1680  and  CG2_1682
REMARK  953  A    between atoms: N_1683  and  CA_1684
REMARK  954  A    between atoms: CA_1684  and  C_1685
REMARK  955  A    between atoms: CA_1684  and  CB_1687
REMARK  956  A    between atoms: CB_1687  and  CG_1688
REMARK  957  A    between atoms: CZ_1693  and  OH_1694
REMARK  958  A    between atoms: N_1695  and  CA_1696
REMARK  959  A    between atoms: CA_1696  and  C_1697
REMARK  960  A    between atoms: CA_1696  and  CB_1699
REMARK  961  A    between atoms: CB_1699  and  CG_1700
REMARK  962  A    between atoms: CG_1700  and  CD_1701
REMARK  963  A    between atoms: N_1704  and  CA_1705
REMARK  964  A    between atoms: CA_1705  and  C_1706
REMARK  965  A    between atoms: CA_1705  and  CB_1708
REMARK  966  A    between atoms: CB_1708  and  CG_1709
REMARK  967  A    between atoms: CG_1709  and  CD_1710
REMARK  968  A    between atoms: N_1713  and  CA_1714
REMARK  969  A    between atoms: CA_1714  and  C_1715
REMARK  970  A    between atoms: CA_1714  and  CB_1717
REMARK  971  A    between atoms: CB_1717  and  OG1_1718
REMARK  972  A    between atoms: CB_1717  and  CG2_1719
REMARK  973  A    between atoms: N_1720  and  CA_1721
REMARK  974  A    between atoms: CA_1721  and  C_1722
REMARK  975  A    between atoms: CA_1721  and  CB_1724
REMARK  976  A    between atoms: CB_1724  and  CG_1725
REMARK  977  A    between atoms: CZ_1730  and  OH_1731
REMARK  978  A    between atoms: N_1732  and  CA_1733
REMARK  979  A    between atoms: CA_1733  and  C_1734
REMARK  980  A    between atoms: CA_1733  and  CB_1736
REMARK  981  A    between atoms: CB_1736  and  SG_1737
REMARK  982  A    between atoms: N_1738  and  C_1739
REMARK  983  A    between atoms: C_1739  and  C_1740
REMARK  984  A    between atoms: C_1739  and  C_1742
REMARK  985  A    between atoms: C_1742  and  C_1743
REMARK  986  A    between atoms: C_1743  and  C_1744
REMARK  987  A    between atoms: C_1744  and  N_1745
REMARK  988  A    between atoms: N_1746  and  CA_1747
REMARK  989  A    between atoms: CA_1747  and  C_1748
REMARK  990  A    between atoms: CA_1747  and  CB_1750
REMARK  991  A    between atoms: CB_1750  and  CG1_1751
REMARK  992  A    between atoms: CB_1750  and  CG2_1752
REMARK  993  A    between atoms: CG1_1751  and  CD1_1753
REMARK  994  A    between atoms: N_1754  and  C_1755
REMARK  995  A    between atoms: C_1755  and  C_1756
REMARK  996  A    between atoms: C_1755  and  C_1758
REMARK  997  A    between atoms: C_1758  and  O_1759
REMARK  998  A    between atoms: N_1760  and  C_1761
REMARK  999  A    between atoms: C_1761  and  C_1762
REMARK  1000  A    between atoms: C_1761  and  C_1764
REMARK  1001  A    between atoms: C_1764  and  C_1765
REMARK  1002  A    between atoms: C_1765  and  C_1766
REMARK  1003  A    between atoms: C_1766  and  N_1767
REMARK  1004  A    between atoms: N_1771  and  C_1772
REMARK  1005  A    between atoms: C_1772  and  C_1773
REMARK  1006  A    between atoms: C_1772  and  C_1775
REMARK  1007  A    between atoms: C_1775  and  C_1776
REMARK  1008  A    between atoms: C_1775  and  C_1777
REMARK  1009  A    between atoms: N_1778  and  C_1779
REMARK  1010  A    between atoms: C_1779  and  C_1780
REMARK  1011  A    between atoms: C_1779  and  C_1782
REMARK  1012  A    between atoms: C_1782  and  C_1783
REMARK  1013  A    between atoms: C_1783  and  C_1784
REMARK  1014  A    between atoms: N_1787  and  C_1788
REMARK  1015  A    between atoms: C_1788  and  C_1789
REMARK  1016  A    between atoms: C_1788  and  C_1791
REMARK  1017  A    between atoms: C_1791  and  C_1792
REMARK  1018  A    between atoms: N_1798  and  C_1799
REMARK  1019  A    between atoms: C_1799  and  C_1800
REMARK  1020  A    between atoms: C_1799  and  C_1802
REMARK  1021  A    between atoms: C_1802  and  O_1803
REMARK  1022  A    between atoms: C_1802  and  C_1804
REMARK  1023  A    between atoms: N_1805  and  C_1806
REMARK  1024  A    between atoms: C_1806  and  C_1807
REMARK  1025  A    between atoms: C_1806  and  C_1809
REMARK  1026  A    between atoms: C_1809  and  C_1810
REMARK  1027  A    between atoms: C_1817  and  C_1818
REMARK  1028  A    between atoms: N_1823  and  C_1824
REMARK  1029  A    between atoms: C_1824  and  C_1825
REMARK  1030  A    between atoms: C_1824  and  C_1827
REMARK  1031  A    between atoms: C_1827  and  C_1828
REMARK  1032  A    between atoms: N_1831  and  C_1832
REMARK  1033  A    between atoms: C_1832  and  C_1833
REMARK  1034  A    between atoms: C_1832  and  C_1835
REMARK  1035  A    between atoms: C_1835  and  C_1836
REMARK  1036  A    between atoms: N_1842  and  C_1843
REMARK  1037  A    between atoms: C_1843  and  C_1844
REMARK  1038  A    between atoms: C_1843  and  C_1846
REMARK  1039  A    between atoms: C_1846  and  C_1847
REMARK  1040  A    between atoms: C_1846  and  C_1848
REMARK  1041  A    between atoms: N_1849  and  C_1850
REMARK  1042  A    between atoms: C_1850  and  C_1851
REMARK  1043  A    between atoms: C_1850  and  C_1853
REMARK  1044  A    between atoms: C_1853  and  O_1854
REMARK  1045  A    between atoms: C_1853  and  C_1855
REMARK  1046  A    between atoms: N_1856  and  C_1857
REMARK  1047  A    between atoms: C_1858  and  C_1859
REMARK  1048  A    between atoms: C_1858  and  C_1861
REMARK  1049  A    between atoms: C_1862  and  C_1863
REMARK  1050  A    between atoms: C_1862  and  C_1864
REMARK  1051  A    between atoms: C_1863  and  C_1865
REMARK  1052  A    between atoms: N_1871  and  C_1872
REMARK  1053  A    between atoms: C_1872  and  C_1873
REMARK  1054  A    between atoms: N_1875  and  CA_1876
REMARK  1055  A    between atoms: CA_1876  and  C_1877
REMARK  1056  A    between atoms: CA_1876  and  CB_1879
REMARK  1057  A    between atoms: N_1880  and  CA_1881
REMARK  1058  A    between atoms: CA_1881  and  C_1882
REMARK  1059  A    between atoms: CA_1881  and  CB_1884
REMARK  1060  A    between atoms: CB_1884  and  CG_1885
REMARK  1061  A    between atoms: CG_1885  and  CD_1886
REMARK  1062  A    between atoms: CD_1886  and  NE_1887
REMARK  1063  A    between atoms: N_1891  and  CA_1892
REMARK  1064  A    between atoms: CA_1892  and  C_1893
REMARK  1065  A    between atoms: CA_1892  and  CB_1895
REMARK  1066  A    between atoms: CB_1895  and  CG_1896
REMARK  1067  A    between atoms: N_1899  and  CA_1900
REMARK  1068  A    between atoms: CA_1900  and  C_1901
REMARK  1069  A    between atoms: CA_1900  and  CB_1903
REMARK  1070  A    between atoms: CB_1903  and  CG_1904
REMARK  1071  A    between atoms: CG_1904  and  CD1_1905
REMARK  1072  A    between atoms: CG_1904  and  CD2_1906
REMARK  1073  A    between atoms: N_1907  and  CA_1908
REMARK  1074  A    between atoms: CA_1908  and  C_1909
REMARK  1075  A    between atoms: CA_1908  and  CB_1911
REMARK  1076  A    between atoms: CB_1911  and  CG1_1912
REMARK  1077  A    between atoms: CB_1911  and  CG2_1913
REMARK  1078  A    between atoms: CG1_1912  and  CD1_1914
REMARK  1079  A    between atoms: N_1915  and  CA_1916
REMARK  1080  A    between atoms: CA_1916  and  C_1917
REMARK  1081  A    between atoms: CA_1916  and  CB_1919
REMARK  1082  A    between atoms: CB_1919  and  OG_1920
REMARK  1083  A    between atoms: N_1921  and  CA_1922
REMARK  1084  A    between atoms: CA_1922  and  C_1923
REMARK  1085  A    between atoms: CA_1922  and  CB_1925
REMARK  1086  A    between atoms: CB_1925  and  CG_1926
REMARK  1087  A    between atoms: CG_1926  and  CD_1927
REMARK  1088  A    between atoms: CD_1927  and  NE_1928
REMARK  1089  A    between atoms: N_1932  and  CA_1933
REMARK  1090  A    between atoms: CA_1933  and  C_1934
REMARK  1091  A    between atoms: CA_1933  and  CB_1936
REMARK  1092  A    between atoms: CB_1936  and  CG_1937
REMARK  1093  A    between atoms: CG_1937  and  CD2_1938
REMARK  1094  A    between atoms: CG_1937  and  CD1_1939
REMARK  1095  A    between atoms: N_1940  and  CA_1941
REMARK  1096  A    between atoms: CA_1941  and  C_1942
REMARK  1097  A    between atoms: CA_1941  and  CB_1944
REMARK  1098  A    between atoms: CB_1944  and  CG_1945
REMARK  1099  A    between atoms: CG_1945  and  CD2_1946
REMARK  1100  A    between atoms: CG_1945  and  CD1_1947
REMARK  1101  A    between atoms: N_1948  and  CA_1949
REMARK  1102  A    between atoms: CA_1949  and  C_1950
REMARK  1103  A    between atoms: CA_1949  and  CB_1952
REMARK  1104  A    between atoms: CB_1952  and  CG_1953
REMARK  1105  A    between atoms: CG_1953  and  CD_1954
REMARK  1106  A    between atoms: CD_1954  and  CE_1955
REMARK  1107  A    between atoms: CE_1955  and  NZ_1956
REMARK  1108  A    between atoms: N_1957  and  CA_1958
REMARK  1109  A    between atoms: CA_1958  and  C_1959
REMARK  1110  A    between atoms: CA_1958  and  CB_1961
REMARK  1111  A    between atoms: CB_1961  and  CG_1962
REMARK  1112  A    between atoms: N_1967  and  CA_1968
REMARK  1113  A    between atoms: CA_1968  and  C_1969
REMARK  1114  A    between atoms: CA_1968  and  CB_1971
REMARK  1115  A    between atoms: CB_1971  and  CG_1972
REMARK  1116  A    between atoms: CA_1976  and  C_1977
REMARK  1117  A    between atoms: N_1982  and  C_1983
REMARK  1118  A    between atoms: C_1983  and  C_1984
REMARK  1119  A    between atoms: C_1983  and  C_1986
REMARK  1120  A    between atoms: C_1986  and  O_1987
REMARK  1121  A    between atoms: N_1988  and  C_1989
REMARK  1122  A    between atoms: C_1989  and  C_1990
REMARK  1123  A    between atoms: C_1989  and  C_1992
REMARK  1124  A    between atoms: C_1992  and  C_1993
REMARK  1125  A    between atoms: C_1993  and  C_1994
REMARK  1126  A    between atoms: N_1997  and  C_1998
REMARK  1127  A    between atoms: C_1998  and  C_1999
REMARK  1128  A    between atoms: C_1998  and  C_2001
REMARK  1129  A    between atoms: C_2001  and  C_2002
REMARK  1130  A    between atoms: C_2002  and  C_2003
REMARK  1131  A    between atoms: C_2003  and  N_2004
REMARK  1132  A    between atoms: C_2009  and  C_2010
REMARK  1133  A    between atoms: N_2015  and  C_2017
REMARK  1134  A    between atoms: C_2016  and  C_2018
REMARK  1135  A    between atoms: C_2016  and  C_2021
REMARK  1136  A    between atoms: C_2021  and  C_2022
REMARK  1137  A    between atoms: C_2022  and  C_2023
REMARK  1138  A    between atoms: C_2023  and  S_2024
REMARK  1139  A    between atoms: C_2023  and  S_2025
REMARK  1140  A    between atoms: S_2024  and  C_2026
REMARK  1141  A    between atoms: S_2025  and  C_2027
REMARK  1142  A    between atoms: N_2028  and  CA_2029
REMARK  1143  A    between atoms: CA_2029  and  C_2030
REMARK  1144  A    between atoms: CA_2029  and  CB_2032
REMARK  1145  A    between atoms: CB_2032  and  CG_2033
REMARK  1146  A    between atoms: CG_2033  and  CD1_2034
REMARK  1147  A    between atoms: CG_2033  and  CD2_2035
REMARK  1148  A    between atoms: N_2036  and  CA_2037
REMARK  1149  A    between atoms: CA_2037  and  C_2038
REMARK  1150  A    between atoms: CA_2037  and  CB_2040
REMARK  1151  A    between atoms: N_2041  and  CA_2042
REMARK  1152  A    between atoms: CA_2042  and  C_2043
REMARK  1153  A    between atoms: CA_2042  and  CB_2045
REMARK  1154  A    between atoms: CB_2045  and  CG_2046
REMARK  1155  A    between atoms: CG_2046  and  CD_2047
REMARK  1156  A    between atoms: N_2050  and  CA_2051
REMARK  1157  A    between atoms: CA_2051  and  C_2052
REMARK  1158  A    between atoms: CA_2051  and  CB_2054
REMARK  1159  A    between atoms: CB_2054  and  CG2_2055
REMARK  1160  A    between atoms: CB_2054  and  CG1_2056
REMARK  1161  A    between atoms: N_2057  and  CA_2058
REMARK  1162  A    between atoms: CA_2058  and  C_2059
REMARK  1163  A    between atoms: CA_2058  and  CB_2061
REMARK  1164  A    between atoms: CB_2061  and  CG_2062
REMARK  1165  A    between atoms: CG_2062  and  CD1_2063
REMARK  1166  A    between atoms: CG_2062  and  CD2_2064
REMARK  1167  A    between atoms: N_2065  and  CA_2066
REMARK  1168  A    between atoms: CA_2066  and  C_2067
REMARK  1169  A    between atoms: CA_2066  and  CB_2069
REMARK  1170  A    between atoms: CB_2069  and  CG_2070
REMARK  1171  A    between atoms: CG_2070  and  CD_2071
REMARK  1172  A    between atoms: N_2074  and  CA_2075
REMARK  1173  A    between atoms: CA_2075  and  C_2076
REMARK  1174  A    between atoms: CA_2075  and  CB_2078
REMARK  1175  A    between atoms: CB_2078  and  CG_2079
REMARK  1176  A    between atoms: CA_2085  and  C_2086
REMARK  1177  A    between atoms: N_2091  and  CA_2092
REMARK  1178  A    between atoms: CA_2092  and  C_2093
REMARK  1179  A    between atoms: CA_2092  and  CB_2095
REMARK  1180  A    between atoms: CB_2095  and  CG_2096
REMARK  1181  A    between atoms: N_2105  and  CA_2106
REMARK  1182  A    between atoms: CA_2106  and  C_2107
REMARK  1183  A    between atoms: CA_2106  and  CB_2109
REMARK  1184  A    between atoms: CB_2109  and  CG1_2110
REMARK  1185  A    between atoms: CB_2109  and  CG2_2111
REMARK  1186  A    between atoms: CG1_2110  and  CD1_2112
REMARK  1187  A    between atoms: N_2113  and  CA_2114
REMARK  1188  A    between atoms: CA_2114  and  C_2115
REMARK  1189  A    between atoms: CA_2114  and  CB_2117
REMARK  1190  A    between atoms: CB_2117  and  OG1_2118
REMARK  1191  A    between atoms: CB_2117  and  CG2_2119
REMARK  1192  A    between atoms: N_2120  and  CA_2121
REMARK  1193  A    between atoms: CA_2121  and  C_2122
REMARK  1194  A    between atoms: CA_2121  and  CB_2124
REMARK  1195  A    between atoms: N_2125  and  CA_2126
REMARK  1196  A    between atoms: CA_2126  and  C_2127
REMARK  1197  A    between atoms: CA_2126  and  CB_2129
REMARK  1198  A    between atoms: CB_2129  and  CG_2130
REMARK  1199  A    between atoms: N_2133  and  CA_2134
REMARK  1200  A    between atoms: CA_2134  and  C_2135
REMARK  1201  A    between atoms: CA_2134  and  CB_2137
REMARK  1202  A    between atoms: CB_2137  and  OG_2138
REMARK  1203  A    between atoms: N_2139  and  CA_2140
REMARK  1204  A    between atoms: CA_2140  and  C_2141
REMARK  1205  A    between atoms: CA_2140  and  CB_2143
REMARK  1206  A    between atoms: CB_2143  and  OG_2144
REMARK  1207  A    between atoms: N_2145  and  C_2146
REMARK  1208  A    between atoms: C_2146  and  C_2147
REMARK  1209  A    between atoms: C_2146  and  C_2149
REMARK  1210  A    between atoms: C_2149  and  C_2150
REMARK  1211  A    between atoms: N_2151  and  CA_2152
REMARK  1212  A    between atoms: CA_2152  and  C_2153
REMARK  1213  A    between atoms: CA_2152  and  CB_2155
REMARK  1214  A    between atoms: CB_2155  and  OG_2156
REMARK  1215  A    between atoms: N_2157  and  CA_2158
REMARK  1216  A    between atoms: CA_2158  and  C_2159
REMARK  1217  A    between atoms: CA_2158  and  CB_2161
REMARK  1218  A    between atoms: CB_2161  and  CG_2162
REMARK  1219  A    between atoms: CG_2162  and  CD_2163
REMARK  1220  A    between atoms: CA_2167  and  C_2168
REMARK  1221  A    between atoms: CA_2174  and  C_2175
REMARK  1222  A    between atoms: N_2180  and  CA_2181
REMARK  1223  A    between atoms: CA_2181  and  C_2182
REMARK  1224  A    between atoms: CA_2181  and  CB_2184
REMARK  1225  A    between atoms: CB_2184  and  OG_2185
REMARK  1226  A    between atoms: N_2186  and  CA_2187
REMARK  1227  A    between atoms: CA_2187  and  C_2188
REMARK  1228  A    between atoms: CA_2187  and  CB_2190
REMARK  1229  A    between atoms: CB_2190  and  CG_2191
REMARK  1230  A    between atoms: N_2200  and  CA_2201
REMARK  1231  A    between atoms: CA_2201  and  C_2202
REMARK  1232  A    between atoms: CA_2201  and  CB_2204
REMARK  1233  A    between atoms: CB_2204  and  CG2_2205
REMARK  1234  A    between atoms: CB_2204  and  CG1_2206
REMARK  1235  A    between atoms: N_2207  and  CA_2208
REMARK  1236  A    between atoms: CA_2208  and  C_2209
REMARK  1237  A    between atoms: CA_2208  and  CB_2211
REMARK  1238  A    between atoms: CB_2211  and  OG1_2212
REMARK  1239  A    between atoms: CB_2211  and  CG2_2213
REMARK  1240  A    between atoms: N_2214  and  CA_2215
REMARK  1241  A    between atoms: CA_2215  and  C_2216
REMARK  1242  A    between atoms: CA_2215  and  CB_2218
REMARK  1243  A    between atoms: CB_2218  and  CG_2219
REMARK  1244  A    between atoms: CG_2219  and  CD_2220
REMARK  1245  A    between atoms: N_2223  and  CA_2224
REMARK  1246  A    between atoms: CA_2224  and  C_2225
REMARK  1247  A    between atoms: CA_2224  and  CB_2227
REMARK  1248  A    between atoms: CB_2227  and  CG_2228
REMARK  1249  A    between atoms: CG_2228  and  SD_2229
REMARK  1250  A    between atoms: SD_2229  and  CE_2230
REMARK  1251  A    between atoms: N_2231  and  CA_2232
REMARK  1252  A    between atoms: CA_2232  and  C_2233
REMARK  1253  A    between atoms: CA_2232  and  CB_2235
REMARK  1254  A    between atoms: CB_2235  and  CG_2236
REMARK  1255  A    between atoms: CG_2236  and  CD1_2237
REMARK  1256  A    between atoms: CG_2236  and  CD2_2238
REMARK  1257  A    between atoms: N_2239  and  CA_2240
REMARK  1258  A    between atoms: CA_2240  and  C_2241
REMARK  1259  A    between atoms: CA_2240  and  CB_2243
REMARK  1260  A    between atoms: CB_2243  and  CG_2244
REMARK  1261  A    between atoms: CG_2244  and  CD1_2245
REMARK  1262  A    between atoms: CG_2244  and  CD2_2246
REMARK  1263  A    between atoms: N_2247  and  CA_2248
REMARK  1264  A    between atoms: CA_2248  and  C_2249
REMARK  1265  A    between atoms: CA_2248  and  CB_2251
REMARK  1266  A    between atoms: CB_2251  and  CG_2252
REMARK  1267  A    between atoms: CG_2252  and  CD_2253
REMARK  1268  A    between atoms: N_2256  and  CA_2257
REMARK  1269  A    between atoms: CA_2257  and  C_2258
REMARK  1270  A    between atoms: CA_2257  and  CB_2260
REMARK  1271  A    between atoms: CB_2260  and  CG_2261
REMARK  1272  A    between atoms: CG_2261  and  CD_2262
REMARK  1273  A    between atoms: CD_2262  and  CE_2263
REMARK  1274  A    between atoms: CE_2263  and  NZ_2264
REMARK  1275  A    between atoms: N_2265  and  C_2266
REMARK  1276  A    between atoms: C_2266  and  C_2267
REMARK  1277  A    between atoms: C_2266  and  C_2269
REMARK  1278  A    between atoms: C_2269  and  C_2270
REMARK  1279  A    between atoms: N_2271  and  CA_2272
REMARK  1280  A    between atoms: CA_2272  and  C_2273
REMARK  1281  A    between atoms: CA_2272  and  CB_2275
REMARK  1282  A    between atoms: CB_2275  and  CG_2276
REMARK  1283  A    between atoms: CG_2276  and  CD2_2277
REMARK  1284  A    between atoms: CG_2276  and  CD1_2278
REMARK  1285  A    between atoms: N_2279  and  CA_2280
REMARK  1286  A    between atoms: CA_2280  and  C_2281
REMARK  1287  A    between atoms: CA_2280  and  CB_2283
REMARK  1288  A    between atoms: CB_2283  and  CG_2284
REMARK  1289  A    between atoms: N_2293  and  CA_2294
REMARK  1290  A    between atoms: CA_2294  and  C_2295
REMARK                            x       y       z     vdW  Elec       q    Type
REMARK                         _______ _______ _______ _____ _____    ______ ____
ROOT
ATOM      1  N   UNL     3     -41.985  35.857   6.860  0.00  0.00    +0.216 N 
ATOM      2  C   UNL     3     -41.224  36.912   7.266  0.00  0.00    +0.186 C 
ATOM      3  H   UNL     3     -41.742  35.612   5.900  0.00  0.00    +0.199 HD
ATOM      4  H   UNL     3     -42.972  36.111   6.907  0.00  0.00    +0.199 HD
ATOM      5  H   UNL     3     -41.811  35.058   7.469  0.00  0.00    +0.199 HD
ENDROOT
TORSDOF 0
REMARK  Name = /Users/wangyang/Desktop/Breast_cancer_brain_metastasis/wang_Gene/AIDD/15_Protein_ligand_docking/data_7ztl/protein.pdb
REMARK  1290 active torsions:
REMARK  status: ('A' for Active; 'I' for Inactive)
REMARK    1  A    between atoms: N_1  and  CA_2
REMARK    2  A    between atoms: CA_2  and  C_3
REMARK    3  A    between atoms: N_5  and  CA_6
REMARK    4  A    between atoms: CA_6  and  C_7
REMARK    5  A    between atoms: CA_6  and  CB_9
REMARK    6  A    between atoms: N_10  and  CA_11
REMARK    7  A    between atoms: CA_11  and  C_12
REMARK    8  A    between atoms: CA_11  and  CB_14
REMARK    9  A    between atoms: CB_14  and  CG_15
REMARK   10  A    between atoms: N_24  and  CA_25
REMARK   11  A    between atoms: CA_25  and  C_26
REMARK   12  A    between atoms: CA_25  and  CB_28
REMARK   13  A    between atoms: N_29  and  CA_30
REMARK   14  A    between atoms: CA_30  and  C_31
REMARK   15  A    between atoms: CA_30  and  CB_33
REMARK   16  A    between atoms: CB_33  and  CG_34
REMARK   17  A    between atoms: CG_34  and  CD1_35
REMARK   18  A    between atoms: CG_34  and  CD2_36
REMARK   19  A    between atoms: N_37  and  CA_38
REMARK   20  A    between atoms: CA_38  and  C_39
REMARK   21  A    between atoms: CA_38  and  CB_41
REMARK   22  A    between atoms: CB_41  and  CG_42
REMARK   23  A    between atoms: CG_42  and  CD_43
REMARK   24  A    between atoms: N_46  and  CA_47
REMARK   25  A    between atoms: CA_47  and  C_48
REMARK   26  A    between atoms: CA_47  and  CB_50
REMARK   27  A    between atoms: CB_50  and  CG_51
REMARK   28  A    between atoms: N_54  and  CA_55
REMARK   29  A    between atoms: CA_55  and  C_56
REMARK   30  A    between atoms: CA_55  and  CB_58
REMARK   31  A    between atoms: CB_58  and  CG_59
REMARK   32  A    between atoms: N_65  and  CA_66
REMARK   33  A    between atoms: CA_66  and  C_67
REMARK   34  A    between atoms: CA_66  and  CB_69
REMARK   35  A    between atoms: CB_69  and  CG_70
REMARK   36  A    between atoms: CG_70  and  CD_71
REMARK   37  A    between atoms: N_74  and  CA_75
REMARK   38  A    between atoms: CA_75  and  C_76
REMARK   39  A    between atoms: CA_75  and  CB_78
REMARK   40  A    between atoms: CB_78  and  CG1_79
REMARK   41  A    between atoms: CB_78  and  CG2_80
REMARK   42  A    between atoms: CG1_79  and  CD1_81
REMARK   43  A    between atoms: N_82  and  CA_83
REMARK   44  A    between atoms: CA_83  and  C_84
REMARK   45  A    between atoms: N_86  and  CA_87
REMARK   46  A    between atoms: CA_87  and  C_88
REMARK   47  A    between atoms: CA_87  and  CB_90
REMARK   48  A    between atoms: CB_90  and  CG_91
REMARK   49  A    between atoms: CG_91  and  CD_92
REMARK   50  A    between atoms: CD_92  and  NE_93
REMARK   51  A    between atoms: CA_98  and  C_99
REMARK   52  A    between atoms: N_104  and  CA_105
REMARK   53  A    between atoms: CA_105  and  C_106
REMARK   54  A    between atoms: CA_105  and  CB_108
REMARK   55  A    between atoms: CB_108  and  CG_109
REMARK   56  A    between atoms: CG_109  and  CD1_110
REMARK   57  A    between atoms: CG_109  and  CD2_111
REMARK   58  A    between atoms: N_112  and  CA_113
REMARK   59  A    between atoms: CA_113  and  C_114
REMARK   60  A    between atoms: N_116  and  C_117
REMARK   61  A    between atoms: C_117  and  C_118
REMARK   62  A    between atoms: C_117  and  C_120
REMARK   63  A    between atoms: C_120  and  C_121
REMARK   64  A    between atoms: C_121  and  C_122
REMARK   65  A    between atoms: N_123  and  CA_124
REMARK   66  A    between atoms: CA_124  and  C_125
REMARK   67  A    between atoms: N_127  and  CA_128
REMARK   68  A    between atoms: CA_128  and  C_129
REMARK   69  A    between atoms: CA_128  and  CB_131
REMARK   70  A    between atoms: CB_131  and  CG_132
REMARK   71  A    between atoms: CG_132  and  CD_133
REMARK   72  A    between atoms: CD_133  and  CE_134
REMARK   73  A    between atoms: CE_134  and  NZ_135
REMARK   74  A    between atoms: N_136  and  CA_137
REMARK   75  A    between atoms: CA_137  and  C_138
REMARK   76  A    between atoms: CA_137  and  CB_140
REMARK   77  A    between atoms: CB_140  and  CG_141
REMARK   78  A    between atoms: N_147  and  CA_148
REMARK   79  A    between atoms: CA_148  and  C_149
REMARK   80  A    between atoms: N_151  and  CA_152
REMARK   81  A    between atoms: CA_152  and  C_153
REMARK   82  A    between atoms: CA_152  and  CB_155
REMARK   83  A    between atoms: CB_155  and  CG_156
REMARK   84  A    between atoms: N_159  and  CA_160
REMARK   85  A    between atoms: CA_160  and  C_161
REMARK   86  A    between atoms: CA_160  and  CB_163
REMARK   87  A    between atoms: CB_163  and  CG1_164
REMARK   88  A    between atoms: CB_163  and  CG2_165
REMARK   89  A    between atoms: N_166  and  CA_167
REMARK   90  A    between atoms: CA_167  and  C_168
REMARK   91  A    between atoms: CA_167  and  CB_170
REMARK   92  A    between atoms: CB_170  and  CG_171
REMARK   93  A    between atoms: CZ_176  and  OH_177
REMARK   94  A    between atoms: N_178  and  CA_179
REMARK   95  A    between atoms: CA_179  and  C_180
REMARK   96  A    between atoms: CA_179  and  CB_182
REMARK   97  A    between atoms: CB_182  and  CG_183
REMARK   98  A    between atoms: CG_183  and  CD1_184
REMARK   99  A    between atoms: CG_183  and  CD2_185
REMARK  100  A    between atoms: N_186  and  CA_187
REMARK  101  A    between atoms: CA_187  and  C_188
REMARK  102  A    between atoms: CA_187  and  CB_190
REMARK  103  A    between atoms: N_191  and  CA_192
REMARK  104  A    between atoms: CA_192  and  C_193
REMARK  105  A    between atoms: CA_192  and  CB_195
REMARK  106  A    between atoms: CB_195  and  CG_196
REMARK  107  A    between atoms: CG_196  and  CD_197
REMARK  108  A    between atoms: CD_197  and  NE_198
REMARK  109  A    between atoms: N_202  and  CA_203
REMARK  110  A    between atoms: CA_203  and  C_204
REMARK  111  A    between atoms: CA_203  and  CB_206
REMARK  112  A    between atoms: CB_206  and  CG_207
REMARK  113  A    between atoms: CG_207  and  CD_208
REMARK  114  A    between atoms: N_211  and  CA_212
REMARK  115  A    between atoms: CA_212  and  C_213
REMARK  116  A    between atoms: CA_212  and  CB_215
REMARK  117  A    between atoms: CB_215  and  CG_216
REMARK  118  A    between atoms: CG_216  and  CD_217
REMARK  119  A    between atoms: CD_217  and  CE_218
REMARK  120  A    between atoms: CE_218  and  NZ_219
REMARK  121  A    between atoms: N_220  and  CA_221
REMARK  122  A    between atoms: CA_221  and  C_222
REMARK  123  A    between atoms: CA_221  and  CB_224
REMARK  124  A    between atoms: N_225  and  CA_226
REMARK  125  A    between atoms: CA_226  and  C_227
REMARK  126  A    between atoms: CA_226  and  CB_229
REMARK  127  A    between atoms: CB_229  and  OG_230
REMARK  128  A    between atoms: N_231  and  CA_232
REMARK  129  A    between atoms: CA_232  and  C_233
REMARK  130  A    between atoms: CA_232  and  CB_235
REMARK  131  A    between atoms: CB_235  and  CG_236
REMARK  132  A    between atoms: CG_236  and  CD_237
REMARK  133  A    between atoms: CD_237  and  CE_238
REMARK  134  A    between atoms: CE_238  and  NZ_239
REMARK  135  A    between atoms: N_240  and  CA_241
REMARK  136  A    between atoms: CA_241  and  C_242
REMARK  137  A    between atoms: CA_241  and  CB_244
REMARK  138  A    between atoms: CB_244  and  CG_245
REMARK  139  A    between atoms: N_251  and  CA_252
REMARK  140  A    between atoms: CA_252  and  C_253
REMARK  141  A    between atoms: CA_252  and  CB_255
REMARK  142  A    between atoms: CB_255  and  CG1_256
REMARK  143  A    between atoms: CB_255  and  CG2_257
REMARK  144  A    between atoms: CG1_256  and  CD1_258
REMARK  145  A    between atoms: N_259  and  CA_260
REMARK  146  A    between atoms: CA_260  and  C_261
REMARK  147  A    between atoms: CA_260  and  CB_263
REMARK  148  A    between atoms: CB_263  and  CG_264
REMARK  149  A    between atoms: CG_264  and  CD1_265
REMARK  150  A    between atoms: CG_264  and  CD2_266
REMARK  151  A    between atoms: N_267  and  CA_268
REMARK  152  A    between atoms: CA_268  and  C_269
REMARK  153  A    between atoms: CA_268  and  CB_271
REMARK  154  A    between atoms: N_272  and  CA_273
REMARK  155  A    between atoms: CA_273  and  C_274
REMARK  156  A    between atoms: CA_273  and  CB_276
REMARK  157  A    between atoms: CB_276  and  CG_277
REMARK  158  A    between atoms: CG_277  and  CD2_278
REMARK  159  A    between atoms: CG_277  and  CD1_279
REMARK  160  A    between atoms: N_280  and  CA_281
REMARK  161  A    between atoms: CA_281  and  C_282
REMARK  162  A    between atoms: CA_281  and  CB_284
REMARK  163  A    between atoms: CB_284  and  CG_285
REMARK  164  A    between atoms: CG_285  and  CD_286
REMARK  165  A    between atoms: CD_286  and  CE_287
REMARK  166  A    between atoms: CE_287  and  NZ_288
REMARK  167  A    between atoms: N_289  and  CA_290
REMARK  168  A    between atoms: CA_290  and  C_291
REMARK  169  A    between atoms: CA_290  and  CB_293
REMARK  170  A    between atoms: CB_293  and  CG2_294
REMARK  171  A    between atoms: CB_293  and  CG1_295
REMARK  172  A    between atoms: N_296  and  CA_297
REMARK  173  A    between atoms: CA_297  and  C_298
REMARK  174  A    between atoms: CA_297  and  CB_300
REMARK  175  A    between atoms: CB_300  and  CG_301
REMARK  176  A    between atoms: CG_301  and  CD1_302
REMARK  177  A    between atoms: CG_301  and  CD2_303
REMARK  178  A    between atoms: N_304  and  CA_305
REMARK  179  A    between atoms: CA_305  and  C_306
REMARK  180  A    between atoms: CA_305  and  CB_308
REMARK  181  A    between atoms: CB_308  and  CG_309
REMARK  182  A    between atoms: N_315  and  CA_316
REMARK  183  A    between atoms: CA_316  and  C_317
REMARK  184  A    between atoms: CA_316  and  CB_319
REMARK  185  A    between atoms: CB_319  and  CG_320
REMARK  186  A    between atoms: CG_320  and  CD_321
REMARK  187  A    between atoms: CD_321  and  CE_322
REMARK  188  A    between atoms: CE_322  and  NZ_323
REMARK  189  A    between atoms: N_324  and  CA_325
REMARK  190  A    between atoms: CA_325  and  C_326
REMARK  191  A    between atoms: CA_325  and  CB_328
REMARK  192  A    between atoms: N_329  and  CA_330
REMARK  193  A    between atoms: CA_330  and  C_331
REMARK  194  A    between atoms: CA_330  and  CB_333
REMARK  195  A    between atoms: CB_333  and  CG_334
REMARK  196  A    between atoms: CG_334  and  CD_335
REMARK  197  A    between atoms: N_338  and  CA_339
REMARK  198  A    between atoms: CA_339  and  C_340
REMARK  199  A    between atoms: CA_339  and  CB_342
REMARK  200  A    between atoms: CB_342  and  CG_343
REMARK  201  A    between atoms: CG_343  and  CD1_344
REMARK  202  A    between atoms: CG_343  and  CD2_345
REMARK  203  A    between atoms: N_346  and  CA_347
REMARK  204  A    between atoms: CA_347  and  C_348
REMARK  205  A    between atoms: CA_347  and  CB_350
REMARK  206  A    between atoms: CB_350  and  CG_351
REMARK  207  A    between atoms: CG_351  and  CD_352
REMARK  208  A    between atoms: N_355  and  C_356
REMARK  209  A    between atoms: C_356  and  C_357
REMARK  210  A    between atoms: C_356  and  C_359
REMARK  211  A    between atoms: C_359  and  C_360
REMARK  212  A    between atoms: N_361  and  CA_362
REMARK  213  A    between atoms: CA_362  and  C_363
REMARK  214  A    between atoms: CA_362  and  CB_365
REMARK  215  A    between atoms: N_366  and  CA_367
REMARK  216  A    between atoms: CA_367  and  C_368
REMARK  217  A    between atoms: N_370  and  CA_371
REMARK  218  A    between atoms: CA_371  and  C_372
REMARK  219  A    between atoms: CA_371  and  CB_374
REMARK  220  A    between atoms: CB_374  and  CG2_375
REMARK  221  A    between atoms: CB_374  and  CG1_376
REMARK  222  A    between atoms: N_377  and  CA_378
REMARK  223  A    between atoms: CA_378  and  C_379
REMARK  224  A    between atoms: CA_378  and  CB_381
REMARK  225  A    between atoms: CB_381  and  CG_382
REMARK  226  A    between atoms: CG_382  and  CD_383
REMARK  227  A    between atoms: N_386  and  CA_387
REMARK  228  A    between atoms: CA_387  and  C_388
REMARK  229  A    between atoms: CA_387  and  CB_390
REMARK  230  A    between atoms: CB_390  and  CG_391
REMARK  231  A    between atoms: N_396  and  CA_397
REMARK  232  A    between atoms: CA_397  and  C_398
REMARK  233  A    between atoms: CA_397  and  CB_400
REMARK  234  A    between atoms: CB_400  and  CG_401
REMARK  235  A    between atoms: CG_401  and  CD_402
REMARK  236  A    between atoms: N_405  and  CA_406
REMARK  237  A    between atoms: CA_406  and  C_407
REMARK  238  A    between atoms: CA_406  and  CB_409
REMARK  239  A    between atoms: CB_409  and  CG_410
REMARK  240  A    between atoms: CG_410  and  CD2_411
REMARK  241  A    between atoms: CG_410  and  CD1_412
REMARK  242  A    between atoms: N_413  and  CA_414
REMARK  243  A    between atoms: CA_414  and  C_415
REMARK  244  A    between atoms: CA_414  and  CB_417
REMARK  245  A    between atoms: CB_417  and  CG_418
REMARK  246  A    between atoms: CG_418  and  CD_419
REMARK  247  A    between atoms: CD_419  and  NE_420
REMARK  248  A    between atoms: N_424  and  CA_425
REMARK  249  A    between atoms: CA_425  and  C_426
REMARK  250  A    between atoms: CA_425  and  CB_428
REMARK  251  A    between atoms: CB_428  and  CG_429
REMARK  252  A    between atoms: CG_429  and  CD_430
REMARK  253  A    between atoms: CD_430  and  NE_431
REMARK  254  A    between atoms: N_435  and  CA_436
REMARK  255  A    between atoms: CA_436  and  C_437
REMARK  256  A    between atoms: CA_436  and  CB_439
REMARK  257  A    between atoms: CB_439  and  CG_440
REMARK  258  A    between atoms: CG_440  and  CD_441
REMARK  259  A    between atoms: N_444  and  CA_445
REMARK  260  A    between atoms: CA_445  and  C_446
REMARK  261  A    between atoms: CA_445  and  CB_448
REMARK  262  A    between atoms: CB_448  and  CG1_449
REMARK  263  A    between atoms: CB_448  and  CG2_450
REMARK  264  A    between atoms: N_451  and  C_452
REMARK  265  A    between atoms: C_452  and  C_453
REMARK  266  A    between atoms: C_452  and  C_455
REMARK  267  A    between atoms: C_455  and  C_456
REMARK  268  A    between atoms: N_457  and  CA_458
REMARK  269  A    between atoms: CA_458  and  C_459
REMARK  270  A    between atoms: CA_458  and  CB_461
REMARK  271  A    between atoms: CB_461  and  CG1_462
REMARK  272  A    between atoms: CB_461  and  CG2_463
REMARK  273  A    between atoms: CG1_462  and  CD1_464
REMARK  274  A    between atoms: N_465  and  CA_466
REMARK  275  A    between atoms: CA_466  and  C_467
REMARK  276  A    between atoms: CA_466  and  CB_469
REMARK  277  A    between atoms: CB_469  and  CG_470
REMARK  278  A    between atoms: CG_470  and  CD_471
REMARK  279  A    between atoms: N_474  and  C_475
REMARK  280  A    between atoms: C_475  and  C_476
REMARK  281  A    between atoms: C_475  and  C_478
REMARK  282  A    between atoms: C_478  and  O_479
REMARK  283  A    between atoms: N_480  and  C_481
REMARK  284  A    between atoms: C_481  and  C_482
REMARK  285  A    between atoms: C_481  and  C_484
REMARK  286  A    between atoms: C_484  and  C_485
REMARK  287  A    between atoms: N_490  and  C_491
REMARK  288  A    between atoms: C_491  and  C_492
REMARK  289  A    between atoms: C_491  and  C_494
REMARK  290  A    between atoms: C_494  and  C_495
REMARK  291  A    between atoms: C_495  and  C_496
REMARK  292  A    between atoms: C_495  and  C_497
REMARK  293  A    between atoms: N_498  and  C_499
REMARK  294  A    between atoms: C_499  and  C_500
REMARK  295  A    between atoms: C_499  and  C_502
REMARK  296  A    between atoms: C_502  and  C_503
REMARK  297  A    between atoms: C_503  and  C_504
REMARK  298  A    between atoms: C_504  and  N_505
REMARK  299  A    between atoms: N_509  and  C_510
REMARK  300  A    between atoms: C_510  and  C_511
REMARK  301  A    between atoms: C_510  and  C_513
REMARK  302  A    between atoms: C_513  and  C_514
REMARK  303  A    between atoms: C_520  and  C_521
REMARK  304  A    between atoms: N_526  and  C_527
REMARK  305  A    between atoms: C_527  and  C_528
REMARK  306  A    between atoms: C_527  and  C_530
REMARK  307  A    between atoms: C_530  and  C_531
REMARK  308  A    between atoms: N_534  and  C_535
REMARK  309  A    between atoms: C_535  and  C_536
REMARK  310  A    between atoms: C_535  and  C_538
REMARK  311  A    between atoms: C_538  and  C_539
REMARK  312  A    between atoms: C_538  and  C_540
REMARK  313  A    between atoms: C_539  and  C_541
REMARK  314  A    between atoms: N_542  and  C_543
REMARK  315  A    between atoms: C_543  and  C_544
REMARK  316  A    between atoms: C_543  and  C_546
REMARK  317  A    between atoms: C_546  and  C_547
REMARK  318  A    between atoms: C_547  and  C_548
REMARK  319  A    between atoms: C_547  and  C_549
REMARK  320  A    between atoms: N_550  and  C_551
REMARK  321  A    between atoms: C_551  and  C_552
REMARK  322  A    between atoms: C_551  and  C_554
REMARK  323  A    between atoms: C_554  and  C_555
REMARK  324  A    between atoms: C_555  and  C_556
REMARK  325  A    between atoms: C_556  and  N_557
REMARK  326  A    between atoms: N_561  and  C_562
REMARK  327  A    between atoms: C_562  and  C_567
REMARK  328  A    between atoms: C_563  and  C_564
REMARK  329  A    between atoms: C_568  and  C_569
REMARK  330  A    between atoms: C_568  and  C_571
REMARK  331  A    between atoms: C_569  and  C_572
REMARK  332  A    between atoms: C_569  and  C_573
REMARK  333  A    between atoms: C_570  and  C_573
REMARK  334  A    between atoms: N_574  and  CA_575
REMARK  335  A    between atoms: CA_575  and  C_576
REMARK  336  A    between atoms: CA_575  and  CB_578
REMARK  337  A    between atoms: CB_578  and  CG_579
REMARK  338  A    between atoms: CZ_584  and  OH_585
REMARK  339  A    between atoms: N_586  and  CA_587
REMARK  340  A    between atoms: CA_587  and  C_588
REMARK  341  A    between atoms: N_590  and  CA_591
REMARK  342  A    between atoms: CA_591  and  C_592
REMARK  343  A    between atoms: CA_591  and  CB_594
REMARK  344  A    between atoms: CB_594  and  CG_595
REMARK  345  A    between atoms: CZ_600  and  OH_601
REMARK  346  A    between atoms: N_602  and  CA_603
REMARK  347  A    between atoms: CA_603  and  C_604
REMARK  348  A    between atoms: CA_603  and  CB_606
REMARK  349  A    between atoms: CB_606  and  CG_607
REMARK  350  A    between atoms: N_613  and  CA_614
REMARK  351  A    between atoms: CA_614  and  C_615
REMARK  352  A    between atoms: CA_614  and  CB_617
REMARK  353  A    between atoms: CB_617  and  CG_618
REMARK  354  A    between atoms: N_623  and  CA_624
REMARK  355  A    between atoms: CA_624  and  C_625
REMARK  356  A    between atoms: CA_624  and  CB_627
REMARK  357  A    between atoms: CB_627  and  CG_628
REMARK  358  A    between atoms: N_631  and  CA_632
REMARK  359  A    between atoms: CA_632  and  C_633
REMARK  360  A    between atoms: CA_632  and  CB_635
REMARK  361  A    between atoms: N_636  and  CA_637
REMARK  362  A    between atoms: CA_637  and  C_638
REMARK  363  A    between atoms: CA_637  and  CB_640
REMARK  364  A    between atoms: CB_640  and  OG1_641
REMARK  365  A    between atoms: CB_640  and  CG2_642
REMARK  366  A    between atoms: N_643  and  CA_644
REMARK  367  A    between atoms: CA_644  and  C_645
REMARK  368  A    between atoms: CA_644  and  CB_647
REMARK  369  A    between atoms: CB_647  and  CG_648
REMARK  370  A    between atoms: CG_648  and  CD_649
REMARK  371  A    between atoms: CD_649  and  NE_650
REMARK  372  A    between atoms: N_654  and  CA_655
REMARK  373  A    between atoms: CA_655  and  C_656
REMARK  374  A    between atoms: CA_655  and  CB_658
REMARK  375  A    between atoms: CB_658  and  CG1_659
REMARK  376  A    between atoms: CB_658  and  CG2_660
REMARK  377  A    between atoms: N_661  and  CA_662
REMARK  378  A    between atoms: CA_662  and  C_663
REMARK  379  A    between atoms: CA_662  and  CB_665
REMARK  380  A    between atoms: CB_665  and  CG_666
REMARK  381  A    between atoms: CZ_671  and  OH_672
REMARK  382  A    between atoms: N_673  and  CA_674
REMARK  383  A    between atoms: CA_674  and  C_675
REMARK  384  A    between atoms: CA_674  and  CB_677
REMARK  385  A    between atoms: CB_677  and  CG_678
REMARK  386  A    between atoms: CG_678  and  CD2_679
REMARK  387  A    between atoms: CG_678  and  CD1_680
REMARK  388  A    between atoms: N_681  and  CA_682
REMARK  389  A    between atoms: CA_682  and  C_683
REMARK  390  A    between atoms: CA_682  and  CB_685
REMARK  391  A    between atoms: CB_685  and  CG1_686
REMARK  392  A    between atoms: CB_685  and  CG2_687
REMARK  393  A    between atoms: CG1_686  and  CD1_688
REMARK  394  A    between atoms: N_689  and  CA_690
REMARK  395  A    between atoms: CA_690  and  C_691
REMARK  396  A    between atoms: CA_690  and  CB_693
REMARK  397  A    between atoms: CB_693  and  CG_694
REMARK  398  A    between atoms: CG_694  and  CD2_695
REMARK  399  A    between atoms: CG_694  and  CD1_696
REMARK  400  A    between atoms: N_697  and  CA_698
REMARK  401  A    between atoms: CA_698  and  C_699
REMARK  402  A    between atoms: CA_698  and  CB_701
REMARK  403  A    between atoms: CB_701  and  CG_702
REMARK  404  A    between atoms: CG_702  and  CD_703
REMARK  405  A    between atoms: N_706  and  CA_707
REMARK  406  A    between atoms: CA_707  and  C_708
REMARK  407  A    between atoms: CA_707  and  CB_710
REMARK  408  A    between atoms: CB_710  and  CG_711
REMARK  409  A    between atoms: CZ_716  and  OH_717
REMARK  410  A    between atoms: N_718  and  CA_719
REMARK  411  A    between atoms: CA_719  and  C_720
REMARK  412  A    between atoms: CA_719  and  CB_722
REMARK  413  A    between atoms: CA_724  and  C_725
REMARK  414  A    between atoms: N_730  and  CA_731
REMARK  415  A    between atoms: CA_731  and  C_732
REMARK  416  A    between atoms: CA_731  and  CB_734
REMARK  417  A    between atoms: CB_734  and  CG_735
REMARK  418  A    between atoms: CG_735  and  CD1_736
REMARK  419  A    between atoms: CG_735  and  CD2_737
REMARK  420  A    between atoms: N_738  and  CA_739
REMARK  421  A    between atoms: CA_739  and  C_740
REMARK  422  A    between atoms: N_742  and  CA_743
REMARK  423  A    between atoms: CA_743  and  C_744
REMARK  424  A    between atoms: CA_743  and  CB_746
REMARK  425  A    between atoms: CB_746  and  OG1_747
REMARK  426  A    between atoms: CB_746  and  CG2_748
REMARK  427  A    between atoms: N_749  and  CA_750
REMARK  428  A    between atoms: CA_750  and  C_751
REMARK  429  A    between atoms: CA_750  and  CB_753
REMARK  430  A    between atoms: CB_753  and  CG2_754
REMARK  431  A    between atoms: CB_753  and  CG1_755
REMARK  432  A    between atoms: N_756  and  CA_757
REMARK  433  A    between atoms: CA_757  and  C_758
REMARK  434  A    between atoms: CA_757  and  CB_760
REMARK  435  A    between atoms: CB_760  and  CG_761
REMARK  436  A    between atoms: CZ_766  and  OH_767
REMARK  437  A    between atoms: N_768  and  C_769
REMARK  438  A    between atoms: C_769  and  C_770
REMARK  439  A    between atoms: C_769  and  C_772
REMARK  440  A    between atoms: C_772  and  C_773
REMARK  441  A    between atoms: N_774  and  CA_775
REMARK  442  A    between atoms: CA_775  and  C_776
REMARK  443  A    between atoms: CA_775  and  CB_778
REMARK  444  A    between atoms: CB_778  and  CG_779
REMARK  445  A    between atoms: CG_779  and  CD_780
REMARK  446  A    between atoms: N_783  and  CA_784
REMARK  447  A    between atoms: CA_784  and  C_785
REMARK  448  A    between atoms: CA_784  and  CB_787
REMARK  449  A    between atoms: CB_787  and  CG_788
REMARK  450  A    between atoms: CG_788  and  CD2_789
REMARK  451  A    between atoms: CG_788  and  CD1_790
REMARK  452  A    between atoms: N_791  and  CA_792
REMARK  453  A    between atoms: CA_792  and  C_793
REMARK  454  A    between atoms: CA_792  and  CB_795
REMARK  455  A    between atoms: CB_795  and  CG_796
REMARK  456  A    between atoms: CG_796  and  CD_797
REMARK  457  A    between atoms: N_800  and  CA_801
REMARK  458  A    between atoms: CA_801  and  C_802
REMARK  459  A    between atoms: CA_801  and  CB_804
REMARK  460  A    between atoms: CB_804  and  CG_805
REMARK  461  A    between atoms: CG_805  and  CD_806
REMARK  462  A    between atoms: CD_806  and  CE_807
REMARK  463  A    between atoms: CE_807  and  NZ_808
REMARK  464  A    between atoms: N_809  and  CA_810
REMARK  465  A    between atoms: CA_810  and  C_811
REMARK  466  A    between atoms: CA_810  and  CB_813
REMARK  467  A    between atoms: CB_813  and  CG_814
REMARK  468  A    between atoms: CG_814  and  CD1_815
REMARK  469  A    between atoms: CG_814  and  CD2_816
REMARK  470  A    between atoms: N_817  and  CA_818
REMARK  471  A    between atoms: CA_818  and  C_819
REMARK  472  A    between atoms: CA_818  and  CB_821
REMARK  473  A    between atoms: CB_821  and  OG_822
REMARK  474  A    between atoms: N_823  and  CA_824
REMARK  475  A    between atoms: CA_824  and  C_825
REMARK  476  A    between atoms: CA_824  and  CB_827
REMARK  477  A    between atoms: CB_827  and  CG_828
REMARK  478  A    between atoms: CG_828  and  CD_829
REMARK  479  A    between atoms: CD_829  and  CE_830
REMARK  480  A    between atoms: CE_830  and  NZ_831
REMARK  481  A    between atoms: N_832  and  CA_833
REMARK  482  A    between atoms: CA_833  and  C_834
REMARK  483  A    between atoms: CA_833  and  CB_836
REMARK  484  A    between atoms: CB_836  and  CG_837
REMARK  485  A    between atoms: N_843  and  CA_844
REMARK  486  A    between atoms: CA_844  and  C_845
REMARK  487  A    between atoms: CA_844  and  CB_847
REMARK  488  A    between atoms: CB_847  and  CG_848
REMARK  489  A    between atoms: N_851  and  CA_852
REMARK  490  A    between atoms: CA_852  and  C_853
REMARK  491  A    between atoms: CA_852  and  CB_855
REMARK  492  A    between atoms: CB_855  and  CG_856
REMARK  493  A    between atoms: CG_856  and  CD_857
REMARK  494  A    between atoms: N_860  and  CA_861
REMARK  495  A    between atoms: CA_861  and  C_862
REMARK  496  A    between atoms: CA_861  and  CB_864
REMARK  497  A    between atoms: CB_864  and  CG_865
REMARK  498  A    between atoms: CG_865  and  CD_866
REMARK  499  A    between atoms: N_869  and  CA_870
REMARK  500  A    between atoms: CA_870  and  C_871
REMARK  501  A    between atoms: CA_870  and  CB_873
REMARK  502  A    between atoms: CB_873  and  CG_874
REMARK  503  A    between atoms: CG_874  and  CD_875
REMARK  504  A    between atoms: CD_875  and  NE_876
REMARK  505  A    between atoms: N_880  and  CA_881
REMARK  506  A    between atoms: CA_881  and  C_882
REMARK  507  A    between atoms: CA_881  and  CB_884
REMARK  508  A    between atoms: CB_884  and  OG1_885
REMARK  509  A    between atoms: CB_884  and  CG2_886
REMARK  510  A    between atoms: N_887  and  CA_888
REMARK  511  A    between atoms: CA_888  and  C_889
REMARK  512  A    between atoms: CA_888  and  CB_891
REMARK  513  A    between atoms: N_892  and  CA_893
REMARK  514  A    between atoms: CA_893  and  C_894
REMARK  515  A    between atoms: CA_893  and  CB_896
REMARK  516  A    between atoms: CB_896  and  OG1_897
REMARK  517  A    between atoms: CB_896  and  CG2_898
REMARK  518  A    between atoms: N_899  and  CA_900
REMARK  519  A    between atoms: CA_900  and  C_901
REMARK  520  A    between atoms: CA_900  and  CB_903
REMARK  521  A    between atoms: CB_903  and  CG_904
REMARK  522  A    between atoms: CZ_909  and  OH_910
REMARK  523  A    between atoms: N_911  and  CA_912
REMARK  524  A    between atoms: CA_912  and  C_913
REMARK  525  A    between atoms: CA_912  and  CB_915
REMARK  526  A    between atoms: CB_915  and  CG1_916
REMARK  527  A    between atoms: CB_915  and  CG2_917
REMARK  528  A    between atoms: CG1_916  and  CD1_918
REMARK  529  A    between atoms: N_919  and  CA_920
REMARK  530  A    between atoms: CA_920  and  C_921
REMARK  531  A    between atoms: CA_920  and  CB_923
REMARK  532  A    between atoms: CB_923  and  OG1_924
REMARK  533  A    between atoms: CB_923  and  CG2_925
REMARK  534  A    between atoms: N_926  and  CA_927
REMARK  535  A    between atoms: CA_927  and  C_928
REMARK  536  A    between atoms: CA_927  and  CB_930
REMARK  537  A    between atoms: CB_930  and  CG_931
REMARK  538  A    between atoms: CG_931  and  CD_932
REMARK  539  A    between atoms: N_935  and  CA_936
REMARK  540  A    between atoms: CA_936  and  C_937
REMARK  541  A    between atoms: CA_936  and  CB_939
REMARK  542  A    between atoms: CB_939  and  CG_940
REMARK  543  A    between atoms: CG_940  and  CD2_941
REMARK  544  A    between atoms: CG_940  and  CD1_942
REMARK  545  A    between atoms: N_943  and  CA_944
REMARK  546  A    between atoms: CA_944  and  C_945
REMARK  547  A    between atoms: CA_944  and  CB_947
REMARK  548  A    between atoms: N_948  and  CA_949
REMARK  549  A    between atoms: CA_949  and  C_950
REMARK  550  A    between atoms: CA_949  and  CB_952
REMARK  551  A    between atoms: CB_952  and  CG_953
REMARK  552  A    between atoms: N_956  and  CA_957
REMARK  553  A    between atoms: CA_957  and  C_958
REMARK  554  A    between atoms: CA_957  and  CB_960
REMARK  555  A    between atoms: N_961  and  CA_962
REMARK  556  A    between atoms: CA_962  and  C_963
REMARK  557  A    between atoms: CA_962  and  CB_965
REMARK  558  A    between atoms: CB_965  and  CG_966
REMARK  559  A    between atoms: CG_966  and  CD2_967
REMARK  560  A    between atoms: CG_966  and  CD1_968
REMARK  561  A    between atoms: N_969  and  CA_970
REMARK  562  A    between atoms: CA_970  and  C_971
REMARK  563  A    between atoms: CA_970  and  CB_973
REMARK  564  A    between atoms: CB_973  and  OG_974
REMARK  565  A    between atoms: N_975  and  CA_976
REMARK  566  A    between atoms: CA_976  and  C_977
REMARK  567  A    between atoms: CA_976  and  CB_979
REMARK  568  A    between atoms: CB_979  and  CG_980
REMARK  569  A    between atoms: CZ_985  and  OH_986
REMARK  570  A    between atoms: N_987  and  CA_988
REMARK  571  A    between atoms: CA_988  and  C_989
REMARK  572  A    between atoms: CA_988  and  CB_991
REMARK  573  A    between atoms: CB_991  and  SG_992
REMARK  574  A    between atoms: N_993  and  CA_994
REMARK  575  A    between atoms: CA_994  and  C_995
REMARK  576  A    between atoms: CA_994  and  CB_997
REMARK  577  A    between atoms: CB_997  and  CG_998
REMARK  578  A    between atoms: N_1003  and  C_1004
REMARK  579  A    between atoms: C_1004  and  C_1005
REMARK  580  A    between atoms: C_1004  and  C_1007
REMARK  581  A    between atoms: C_1007  and  O_1008
REMARK  582  A    between atoms: N_1009  and  C_1010
REMARK  583  A    between atoms: C_1010  and  C_1011
REMARK  584  A    between atoms: C_1010  and  C_1013
REMARK  585  A    between atoms: C_1013  and  C_1014
REMARK  586  A    between atoms: C_1014  and  C_1015
REMARK  587  A    between atoms: C_1015  and  C_1016
REMARK  588  A    between atoms: C_1016  and  N_1017
REMARK  589  A    between atoms: N_1018  and  C_1019
REMARK  590  A    between atoms: C_1020  and  C_1021
REMARK  591  A    between atoms: C_1020  and  C_1024
REMARK  592  A    between atoms: C_1023  and  C_1026
REMARK  593  A    between atoms: C_1025  and  C_1026
REMARK  594  A    between atoms: C_1027  and  N_1029
REMARK  595  A    between atoms: C_1028  and  N_1030
REMARK  596  A    between atoms: N_1037  and  C_1038
REMARK  597  A    between atoms: C_1038  and  C_1039
REMARK  598  A    between atoms: C_1038  and  C_1041
REMARK  599  A    between atoms: C_1041  and  C_1042
REMARK  600  A    between atoms: C_1041  and  C_1043
REMARK  601  A    between atoms: N_1044  and  C_1045
REMARK  602  A    between atoms: C_1045  and  C_1046
REMARK  603  A    between atoms: C_1045  and  C_1048
REMARK  604  A    between atoms: C_1048  and  C_1049
REMARK  605  A    between atoms: C_1048  and  C_1050
REMARK  606  A    between atoms: C_1049  and  C_1051
REMARK  607  A    between atoms: N_1052  and  C_1053
REMARK  608  A    between atoms: C_1053  and  C_1054
REMARK  609  A    between atoms: C_1053  and  C_1056
REMARK  610  A    between atoms: C_1056  and  C_1057
REMARK  611  A    between atoms: N_1062  and  C_1063
REMARK  612  A    between atoms: C_1063  and  C_1064
REMARK  613  A    between atoms: C_1063  and  C_1066
REMARK  614  A    between atoms: C_1066  and  C_1067
REMARK  615  A    between atoms: C_1067  and  C_1068
REMARK  616  A    between atoms: C_1068  and  N_1069
REMARK  617  A    between atoms: N_1073  and  C_1074
REMARK  618  A    between atoms: C_1074  and  C_1077
REMARK  619  A    between atoms: C_1077  and  C_1078
REMARK  620  A    between atoms: N_1081  and  C_1084
REMARK  621  A    between atoms: C_1083  and  C_1085
REMARK  622  A    between atoms: C_1085  and  C_1086
REMARK  623  A    between atoms: C_1085  and  O_1087
REMARK  624  A    between atoms: C_1085  and  N_1097
REMARK  625  A    between atoms: C_1089  and  C_1094
REMARK  626  A    between atoms: C_1090  and  C_1091
REMARK  627  A    between atoms: C_1093  and  C_1094
REMARK  628  A    between atoms: C_1098  and  C_1099
REMARK  629  A    between atoms: C_1098  and  C_1101
REMARK  630  A    between atoms: C_1101  and  C_1102
REMARK  631  A    between atoms: C_1102  and  C_1103
REMARK  632  A    between atoms: C_1103  and  C_1104
REMARK  633  A    between atoms: C_1104  and  N_1105
REMARK  634  A    between atoms: C_1107  and  C_1108
REMARK  635  A    between atoms: N_1113  and  CA_1114
REMARK  636  A    between atoms: CA_1114  and  C_1115
REMARK  637  A    between atoms: CA_1114  and  CB_1117
REMARK  638  A    between atoms: CB_1117  and  CG_1118
REMARK  639  A    between atoms: CG_1118  and  CD_1119
REMARK  640  A    between atoms: N_1122  and  CA_1123
REMARK  641  A    between atoms: CA_1123  and  C_1124
REMARK  642  A    between atoms: CA_1123  and  CB_1126
REMARK  643  A    between atoms: CB_1126  and  CG_1127
REMARK  644  A    between atoms: N_1130  and  CA_1131
REMARK  645  A    between atoms: CA_1131  and  C_1132
REMARK  646  A    between atoms: CA_1131  and  CB_1134
REMARK  647  A    between atoms: CB_1134  and  CG_1135
REMARK  648  A    between atoms: CG_1135  and  CD2_1136
REMARK  649  A    between atoms: CG_1135  and  CD1_1137
REMARK  650  A    between atoms: N_1138  and  CA_1139
REMARK  651  A    between atoms: CA_1139  and  C_1140
REMARK  652  A    between atoms: CA_1139  and  CB_1142
REMARK  653  A    between atoms: CB_1142  and  CG_1143
REMARK  654  A    between atoms: CG_1143  and  CD1_1144
REMARK  655  A    between atoms: CG_1143  and  CD2_1145
REMARK  656  A    between atoms: N_1146  and  CA_1147
REMARK  657  A    between atoms: CA_1147  and  C_1148
REMARK  658  A    between atoms: CA_1147  and  CB_1150
REMARK  659  A    between atoms: CB_1150  and  CG_1151
REMARK  660  A    between atoms: CG_1151  and  CD2_1152
REMARK  661  A    between atoms: CG_1151  and  CD1_1153
REMARK  662  A    between atoms: N_1154  and  CA_1155
REMARK  663  A    between atoms: CA_1155  and  C_1156
REMARK  664  A    between atoms: N_1158  and  CA_1159
REMARK  665  A    between atoms: CA_1159  and  C_1160
REMARK  666  A    between atoms: CA_1159  and  CB_1162
REMARK  667  A    between atoms: CB_1162  and  OG_1163
REMARK  668  A    between atoms: N_1164  and  CA_1165
REMARK  669  A    between atoms: CA_1165  and  C_1166
REMARK  670  A    between atoms: CA_1165  and  CB_1168
REMARK  671  A    between atoms: N_1169  and  CA_1170
REMARK  672  A    between atoms: CA_1170  and  C_1171
REMARK  673  A    between atoms: N_1173  and  CA_1174
REMARK  674  A    between atoms: CA_1174  and  C_1175
REMARK  675  A    between atoms: CA_1174  and  CB_1177
REMARK  676  A    between atoms: CB_1177  and  CG_1178
REMARK  677  A    between atoms: CG_1178  and  CD_1179
REMARK  678  A    between atoms: N_1182  and  CA_1183
REMARK  679  A    between atoms: CA_1183  and  C_1184
REMARK  680  A    between atoms: CA_1183  and  CB_1186
REMARK  681  A    between atoms: CB_1186  and  CG_1187
REMARK  682  A    between atoms: CG_1187  and  CD2_1188
REMARK  683  A    between atoms: CG_1187  and  CD1_1189
REMARK  684  A    between atoms: N_1190  and  CA_1191
REMARK  685  A    between atoms: CA_1191  and  C_1192
REMARK  686  A    between atoms: CA_1191  and  CB_1194
REMARK  687  A    between atoms: CB_1194  and  CG_1195
REMARK  688  A    between atoms: CG_1195  and  CD_1196
REMARK  689  A    between atoms: CD_1196  and  CE_1197
REMARK  690  A    between atoms: CE_1197  and  NZ_1198
REMARK  691  A    between atoms: N_1199  and  CA_1200
REMARK  692  A    between atoms: CA_1200  and  C_1201
REMARK  693  A    between atoms: CA_1200  and  CB_1203
REMARK  694  A    between atoms: CB_1203  and  CG1_1204
REMARK  695  A    between atoms: CB_1203  and  CG2_1205
REMARK  696  A    between atoms: CG1_1204  and  CD1_1206
REMARK  697  A    between atoms: N_1207  and  CA_1208
REMARK  698  A    between atoms: CA_1208  and  C_1209
REMARK  699  A    between atoms: CA_1208  and  CB_1211
REMARK  700  A    between atoms: N_1212  and  CA_1213
REMARK  701  A    between atoms: CA_1213  and  C_1214
REMARK  702  A    between atoms: CA_1213  and  CB_1216
REMARK  703  A    between atoms: CB_1216  and  CG_1217
REMARK  704  A    between atoms: N_1220  and  CA_1221
REMARK  705  A    between atoms: CA_1221  and  C_1222
REMARK  706  A    between atoms: CA_1221  and  CB_1224
REMARK  707  A    between atoms: CB_1224  and  CG_1225
REMARK  708  A    between atoms: N_1231  and  CA_1232
REMARK  709  A    between atoms: CA_1232  and  C_1233
REMARK  710  A    between atoms: N_1235  and  CA_1236
REMARK  711  A    between atoms: CA_1236  and  C_1237
REMARK  712  A    between atoms: CA_1236  and  CB_1239
REMARK  713  A    between atoms: CB_1239  and  CG_1240
REMARK  714  A    between atoms: N_1249  and  CA_1250
REMARK  715  A    between atoms: CA_1250  and  C_1251
REMARK  716  A    between atoms: CA_1250  and  CB_1253
REMARK  717  A    between atoms: CB_1253  and  OG_1254
REMARK  718  A    between atoms: N_1255  and  CA_1256
REMARK  719  A    between atoms: CA_1256  and  C_1257
REMARK  720  A    between atoms: CA_1256  and  CB_1259
REMARK  721  A    between atoms: CB_1259  and  CG2_1260
REMARK  722  A    between atoms: CB_1259  and  CG1_1261
REMARK  723  A    between atoms: N_1262  and  CA_1263
REMARK  724  A    between atoms: CA_1263  and  C_1264
REMARK  725  A    between atoms: CA_1263  and  CB_1266
REMARK  726  A    between atoms: CB_1266  and  CG_1267
REMARK  727  A    between atoms: N_1272  and  CA_1273
REMARK  728  A    between atoms: CA_1273  and  C_1274
REMARK  729  A    between atoms: CA_1273  and  CB_1276
REMARK  730  A    between atoms: CA_1278  and  C_1279
REMARK  731  A    between atoms: N_1284  and  CA_1285
REMARK  732  A    between atoms: CA_1285  and  C_1286
REMARK  733  A    between atoms: CA_1285  and  CB_1288
REMARK  734  A    between atoms: CB_1288  and  OG_1289
REMARK  735  A    between atoms: N_1290  and  CA_1291
REMARK  736  A    between atoms: CA_1291  and  C_1292
REMARK  737  A    between atoms: CA_1291  and  CB_1294
REMARK  738  A    between atoms: CB_1294  and  OG_1295
REMARK  739  A    between atoms: N_1296  and  C_1297
REMARK  740  A    between atoms: C_1297  and  C_1298
REMARK  741  A    between atoms: C_1297  and  C_1300
REMARK  742  A    between atoms: C_1300  and  C_1301
REMARK  743  A    between atoms: C_1301  and  C_1302
REMARK  744  A    between atoms: N_1303  and  CA_1304
REMARK  745  A    between atoms: CA_1304  and  C_1305
REMARK  746  A    between atoms: CA_1304  and  CB_1307
REMARK  747  A    between atoms: CB_1307  and  CG_1308
REMARK  748  A    between atoms: CG_1308  and  CD_1309
REMARK  749  A    between atoms: CD_1309  and  NE_1310
REMARK  750  A    between atoms: N_1314  and  CA_1315
REMARK  751  A    between atoms: CA_1315  and  C_1316
REMARK  752  A    between atoms: CA_1315  and  CB_1318
REMARK  753  A    between atoms: CB_1318  and  OG1_1319
REMARK  754  A    between atoms: CB_1318  and  CG2_1320
REMARK  755  A    between atoms: N_1321  and  C_1322
REMARK  756  A    between atoms: C_1322  and  C_1323
REMARK  757  A    between atoms: C_1322  and  C_1325
REMARK  758  A    between atoms: C_1325  and  C_1326
REMARK  759  A    between atoms: C_1326  and  C_1327
REMARK  760  A    between atoms: C_1326  and  C_1328
REMARK  761  A    between atoms: N_1329  and  C_1330
REMARK  762  A    between atoms: C_1330  and  C_1331
REMARK  763  A    between atoms: C_1330  and  C_1333
REMARK  764  A    between atoms: N_1334  and  C_1335
REMARK  765  A    between atoms: C_1335  and  C_1336
REMARK  766  A    between atoms: N_1338  and  C_1339
REMARK  767  A    between atoms: C_1339  and  C_1340
REMARK  768  A    between atoms: C_1339  and  C_1342
REMARK  769  A    between atoms: C_1342  and  O_1343
REMARK  770  A    between atoms: C_1342  and  C_1344
REMARK  771  A    between atoms: N_1345  and  C_1346
REMARK  772  A    between atoms: C_1346  and  C_1347
REMARK  773  A    between atoms: C_1346  and  C_1349
REMARK  774  A    between atoms: C_1349  and  C_1350
REMARK  775  A    between atoms: C_1350  and  C_1351
REMARK  776  A    between atoms: C_1350  and  C_1352
REMARK  777  A    between atoms: N_1353  and  C_1354
REMARK  778  A    between atoms: C_1354  and  C_1355
REMARK  779  A    between atoms: C_1354  and  C_1357
REMARK  780  A    between atoms: C_1357  and  C_1358
REMARK  781  A    between atoms: N_1361  and  C_1362
REMARK  782  A    between atoms: C_1362  and  C_1363
REMARK  783  A    between atoms: C_1362  and  C_1365
REMARK  784  A    between atoms: C_1365  and  C_1366
REMARK  785  A    between atoms: C_1371  and  O_1372
REMARK  786  A    between atoms: N_1373  and  C_1374
REMARK  787  A    between atoms: C_1374  and  C_1375
REMARK  788  A    between atoms: C_1374  and  C_1377
REMARK  789  A    between atoms: C_1377  and  C_1378
REMARK  790  A    between atoms: C_1378  and  C_1379
REMARK  791  A    between atoms: C_1378  and  C_1380
REMARK  792  A    between atoms: C_1382  and  C_1383
REMARK  793  A    between atoms: C_1389  and  C_1390
REMARK  794  A    between atoms: N_1395  and  C_1396
REMARK  795  A    between atoms: C_1396  and  C_1399
REMARK  796  A    between atoms: C_1399  and  C_1400
REMARK  797  A    between atoms: C_1400  and  C_1401
REMARK  798  A    between atoms: N_1405  and  C_1406
REMARK  799  A    between atoms: C_1407  and  C_1412
REMARK  800  A    between atoms: C_1408  and  O_1410
REMARK  801  A    between atoms: C_1409  and  O_1411
REMARK  802  A    between atoms: O_1410  and  O_1411
REMARK  803  A    between atoms: C_1412  and  C_1414
REMARK  804  A    between atoms: C_1413  and  C_1415
REMARK  805  A    between atoms: S_1416  and  C_1418
REMARK  806  A    between atoms: S_1417  and  C_1419
REMARK  807  A    between atoms: C_1418  and  C_1419
REMARK  808  A    between atoms: N_1420  and  CA_1421
REMARK  809  A    between atoms: CA_1421  and  C_1422
REMARK  810  A    between atoms: CA_1421  and  CB_1424
REMARK  811  A    between atoms: CB_1424  and  CG1_1425
REMARK  812  A    between atoms: CB_1424  and  CG2_1426
REMARK  813  A    between atoms: CG1_1425  and  CD1_1427
REMARK  814  A    between atoms: N_1428  and  CA_1429
REMARK  815  A    between atoms: CA_1429  and  C_1430
REMARK  816  A    between atoms: CA_1429  and  CB_1432
REMARK  817  A    between atoms: CB_1432  and  CG_1433
REMARK  818  A    between atoms: CG_1433  and  CD_1434
REMARK  819  A    between atoms: N_1437  and  CA_1438
REMARK  820  A    between atoms: CA_1438  and  C_1439
REMARK  821  A    between atoms: N_1441  and  CA_1442
REMARK  822  A    between atoms: CA_1442  and  C_1443
REMARK  823  A    between atoms: CA_1442  and  CB_1445
REMARK  824  A    between atoms: CB_1445  and  CG_1446
REMARK  825  A    between atoms: CG_1446  and  CD_1447
REMARK  826  A    between atoms: CD_1447  and  NE_1448
REMARK  827  A    between atoms: N_1452  and  C_1453
REMARK  828  A    between atoms: C_1453  and  C_1454
REMARK  829  A    between atoms: C_1453  and  C_1456
REMARK  830  A    between atoms: C_1456  and  C_1457
REMARK  831  A    between atoms: C_1457  and  S_1458
REMARK  832  A    between atoms: N_1459  and  CA_1460
REMARK  833  A    between atoms: CA_1460  and  C_1461
REMARK  834  A    between atoms: CA_1460  and  CB_1463
REMARK  835  A    between atoms: CB_1463  and  CG_1464
REMARK  836  A    between atoms: N_1469  and  CA_1470
REMARK  837  A    between atoms: CA_1470  and  C_1471
REMARK  838  A    between atoms: CA_1470  and  CB_1473
REMARK  839  A    between atoms: CB_1473  and  CG_1474
REMARK  840  A    between atoms: N_1477  and  CA_1478
REMARK  841  A    between atoms: CA_1478  and  C_1479
REMARK  842  A    between atoms: CA_1478  and  CB_1481
REMARK  843  A    between atoms: CB_1481  and  CG_1482
REMARK  844  A    between atoms: CG_1482  and  CD_1483
REMARK  845  A    between atoms: N_1486  and  CA_1487
REMARK  846  A    between atoms: CA_1487  and  C_1488
REMARK  847  A    between atoms: CA_1487  and  CB_1490
REMARK  848  A    between atoms: CB_1490  and  CG_1491
REMARK  849  A    between atoms: CG_1491  and  CD_1492
REMARK  850  A    between atoms: CD_1492  and  CE_1493
REMARK  851  A    between atoms: CE_1493  and  NZ_1494
REMARK  852  A    between atoms: N_1495  and  CA_1496
REMARK  853  A    between atoms: CA_1496  and  C_1497
REMARK  854  A    between atoms: CA_1496  and  CB_1499
REMARK  855  A    between atoms: CB_1499  and  CG2_1500
REMARK  856  A    between atoms: CB_1499  and  CG1_1501
REMARK  857  A    between atoms: N_1502  and  CA_1503
REMARK  858  A    between atoms: CA_1503  and  C_1504
REMARK  859  A    between atoms: CA_1503  and  CB_1506
REMARK  860  A    between atoms: CB_1506  and  CG_1507
REMARK  861  A    between atoms: N_1510  and  CA_1511
REMARK  862  A    between atoms: CA_1511  and  C_1512
REMARK  863  A    between atoms: CA_1511  and  CB_1514
REMARK  864  A    between atoms: CB_1514  and  CG_1515
REMARK  865  A    between atoms: CG_1515  and  CD2_1516
REMARK  866  A    between atoms: CG_1515  and  CD1_1517
REMARK  867  A    between atoms: N_1518  and  CA_1519
REMARK  868  A    between atoms: CA_1519  and  C_1520
REMARK  869  A    between atoms: CA_1519  and  CB_1522
REMARK  870  A    between atoms: CB_1522  and  CG_1523
REMARK  871  A    between atoms: N_1532  and  CA_1533
REMARK  872  A    between atoms: CA_1533  and  C_1534
REMARK  873  A    between atoms: CA_1533  and  CB_1536
REMARK  874  A    between atoms: CB_1536  and  OG_1537
REMARK  875  A    between atoms: N_1538  and  CA_1539
REMARK  876  A    between atoms: CA_1539  and  C_1540
REMARK  877  A    between atoms: CA_1539  and  CB_1542
REMARK  878  A    between atoms: CB_1542  and  CG_1543
REMARK  879  A    between atoms: CG_1543  and  CD2_1544
REMARK  880  A    between atoms: CG_1543  and  CD1_1545
REMARK  881  A    between atoms: N_1546  and  CA_1547
REMARK  882  A    between atoms: CA_1547  and  C_1548
REMARK  883  A    between atoms: N_1550  and  CA_1551
REMARK  884  A    between atoms: CA_1551  and  C_1552
REMARK  885  A    between atoms: CA_1551  and  CB_1554
REMARK  886  A    between atoms: CB_1554  and  CG2_1555
REMARK  887  A    between atoms: CB_1554  and  CG1_1556
REMARK  888  A    between atoms: N_1557  and  CA_1558
REMARK  889  A    between atoms: CA_1558  and  C_1559
REMARK  890  A    between atoms: CA_1558  and  CB_1561
REMARK  891  A    between atoms: CB_1561  and  CG_1562
REMARK  892  A    between atoms: CG_1562  and  CD1_1563
REMARK  893  A    between atoms: CG_1562  and  CD2_1564
REMARK  894  A    between atoms: N_1565  and  CA_1566
REMARK  895  A    between atoms: CA_1566  and  C_1567
REMARK  896  A    between atoms: CA_1566  and  CB_1569
REMARK  897  A    between atoms: CB_1569  and  SG_1570
REMARK  898  A    between atoms: N_1571  and  CA_1572
REMARK  899  A    between atoms: CA_1572  and  C_1573
REMARK  900  A    between atoms: CA_1572  and  CB_1575
REMARK  901  A    between atoms: CB_1575  and  CG_1576
REMARK  902  A    between atoms: CZ_1581  and  OH_1582
REMARK  903  A    between atoms: N_1583  and  CA_1584
REMARK  904  A    between atoms: CA_1584  and  C_1585
REMARK  905  A    between atoms: CA_1584  and  CB_1587
REMARK  906  A    between atoms: CB_1587  and  CG_1588
REMARK  907  A    between atoms: CG_1588  and  CD_1589
REMARK  908  A    between atoms: N_1592  and  CA_1593
REMARK  909  A    between atoms: CA_1593  and  C_1594
REMARK  910  A    between atoms: CA_1593  and  CB_1596
REMARK  911  A    between atoms: CB_1596  and  CG_1597
REMARK  912  A    between atoms: N_1603  and  CA_1604
REMARK  913  A    between atoms: CA_1604  and  C_1605
REMARK  914  A    between atoms: CA_1604  and  CB_1607
REMARK  915  A    between atoms: CB_1607  and  CG_1608
REMARK  916  A    between atoms: CG_1608  and  CD1_1609
REMARK  917  A    between atoms: CG_1608  and  CD2_1610
REMARK  918  A    between atoms: N_1611  and  CA_1612
REMARK  919  A    between atoms: CA_1612  and  C_1613
REMARK  920  A    between atoms: CA_1612  and  CB_1615
REMARK  921  A    between atoms: CB_1615  and  CG2_1616
REMARK  922  A    between atoms: CB_1615  and  CG1_1617
REMARK  923  A    between atoms: N_1618  and  CA_1619
REMARK  924  A    between atoms: CA_1619  and  C_1620
REMARK  925  A    between atoms: N_1622  and  C_1623
REMARK  926  A    between atoms: C_1623  and  C_1624
REMARK  927  A    between atoms: C_1623  and  C_1626
REMARK  928  A    between atoms: C_1626  and  C_1627
REMARK  929  A    between atoms: C_1627  and  C_1628
REMARK  930  A    between atoms: CA_1630  and  C_1631
REMARK  931  A    between atoms: CA_1637  and  C_1638
REMARK  932  A    between atoms: N_1643  and  CA_1644
REMARK  933  A    between atoms: CA_1644  and  C_1645
REMARK  934  A    between atoms: CA_1644  and  CB_1647
REMARK  935  A    between atoms: CB_1647  and  CG_1648
REMARK  936  A    between atoms: N_1654  and  CA_1655
REMARK  937  A    between atoms: CA_1655  and  C_1656
REMARK  938  A    between atoms: CA_1655  and  CB_1658
REMARK  939  A    between atoms: CB_1658  and  CG_1659
REMARK  940  A    between atoms: CG_1659  and  CD_1660
REMARK  941  A    between atoms: N_1663  and  CA_1664
REMARK  942  A    between atoms: CA_1664  and  C_1665
REMARK  943  A    between atoms: CA_1664  and  CB_1667
REMARK  944  A    between atoms: N_1668  and  CA_1669
REMARK  945  A    between atoms: CA_1669  and  C_1670
REMARK  946  A    between atoms: CA_1669  and  CB_1672
REMARK  947  A    between atoms: CB_1672  and  CG_1673
REMARK  948  A    between atoms: N_1676  and  CA_1677
REMARK  949  A    between atoms: CA_1677  and  C_1678
REMARK  950  A    between atoms: CA_1677  and  CB_1680
REMARK  951  A    between atoms: CB_1680  and  OG1_1681
REMARK  952  A    between atoms: CB_1680  and  CG2_1682
REMARK  953  A    between atoms: N_1683  and  CA_1684
REMARK  954  A    between atoms: CA_1684  and  C_1685
REMARK  955  A    between atoms: CA_1684  and  CB_1687
REMARK  956  A    between atoms: CB_1687  and  CG_1688
REMARK  957  A    between atoms: CZ_1693  and  OH_1694
REMARK  958  A    between atoms: N_1695  and  CA_1696
REMARK  959  A    between atoms: CA_1696  and  C_1697
REMARK  960  A    between atoms: CA_1696  and  CB_1699
REMARK  961  A    between atoms: CB_1699  and  CG_1700
REMARK  962  A    between atoms: CG_1700  and  CD_1701
REMARK  963  A    between atoms: N_1704  and  CA_1705
REMARK  964  A    between atoms: CA_1705  and  C_1706
REMARK  965  A    between atoms: CA_1705  and  CB_1708
REMARK  966  A    between atoms: CB_1708  and  CG_1709
REMARK  967  A    between atoms: CG_1709  and  CD_1710
REMARK  968  A    between atoms: N_1713  and  CA_1714
REMARK  969  A    between atoms: CA_1714  and  C_1715
REMARK  970  A    between atoms: CA_1714  and  CB_1717
REMARK  971  A    between atoms: CB_1717  and  OG1_1718
REMARK  972  A    between atoms: CB_1717  and  CG2_1719
REMARK  973  A    between atoms: N_1720  and  CA_1721
REMARK  974  A    between atoms: CA_1721  and  C_1722
REMARK  975  A    between atoms: CA_1721  and  CB_1724
REMARK  976  A    between atoms: CB_1724  and  CG_1725
REMARK  977  A    between atoms: CZ_1730  and  OH_1731
REMARK  978  A    between atoms: N_1732  and  CA_1733
REMARK  979  A    between atoms: CA_1733  and  C_1734
REMARK  980  A    between atoms: CA_1733  and  CB_1736
REMARK  981  A    between atoms: CB_1736  and  SG_1737
REMARK  982  A    between atoms: N_1738  and  C_1739
REMARK  983  A    between atoms: C_1739  and  C_1740
REMARK  984  A    between atoms: C_1739  and  C_1742
REMARK  985  A    between atoms: C_1742  and  C_1743
REMARK  986  A    between atoms: C_1743  and  C_1744
REMARK  987  A    between atoms: C_1744  and  N_1745
REMARK  988  A    between atoms: N_1746  and  CA_1747
REMARK  989  A    between atoms: CA_1747  and  C_1748
REMARK  990  A    between atoms: CA_1747  and  CB_1750
REMARK  991  A    between atoms: CB_1750  and  CG1_1751
REMARK  992  A    between atoms: CB_1750  and  CG2_1752
REMARK  993  A    between atoms: CG1_1751  and  CD1_1753
REMARK  994  A    between atoms: N_1754  and  C_1755
REMARK  995  A    between atoms: C_1755  and  C_1756
REMARK  996  A    between atoms: C_1755  and  C_1758
REMARK  997  A    between atoms: C_1758  and  O_1759
REMARK  998  A    between atoms: N_1760  and  C_1761
REMARK  999  A    between atoms: C_1761  and  C_1762
REMARK  1000  A    between atoms: C_1761  and  C_1764
REMARK  1001  A    between atoms: C_1764  and  C_1765
REMARK  1002  A    between atoms: C_1765  and  C_1766
REMARK  1003  A    between atoms: C_1766  and  N_1767
REMARK  1004  A    between atoms: N_1771  and  C_1772
REMARK  1005  A    between atoms: C_1772  and  C_1773
REMARK  1006  A    between atoms: C_1772  and  C_1775
REMARK  1007  A    between atoms: C_1775  and  C_1776
REMARK  1008  A    between atoms: C_1775  and  C_1777
REMARK  1009  A    between atoms: N_1778  and  C_1779
REMARK  1010  A    between atoms: C_1779  and  C_1780
REMARK  1011  A    between atoms: C_1779  and  C_1782
REMARK  1012  A    between atoms: C_1782  and  C_1783
REMARK  1013  A    between atoms: C_1783  and  C_1784
REMARK  1014  A    between atoms: N_1787  and  C_1788
REMARK  1015  A    between atoms: C_1788  and  C_1789
REMARK  1016  A    between atoms: C_1788  and  C_1791
REMARK  1017  A    between atoms: C_1791  and  C_1792
REMARK  1018  A    between atoms: N_1798  and  C_1799
REMARK  1019  A    between atoms: C_1799  and  C_1800
REMARK  1020  A    between atoms: C_1799  and  C_1802
REMARK  1021  A    between atoms: C_1802  and  O_1803
REMARK  1022  A    between atoms: C_1802  and  C_1804
REMARK  1023  A    between atoms: N_1805  and  C_1806
REMARK  1024  A    between atoms: C_1806  and  C_1807
REMARK  1025  A    between atoms: C_1806  and  C_1809
REMARK  1026  A    between atoms: C_1809  and  C_1810
REMARK  1027  A    between atoms: C_1817  and  C_1818
REMARK  1028  A    between atoms: N_1823  and  C_1824
REMARK  1029  A    between atoms: C_1824  and  C_1825
REMARK  1030  A    between atoms: C_1824  and  C_1827
REMARK  1031  A    between atoms: C_1827  and  C_1828
REMARK  1032  A    between atoms: N_1831  and  C_1832
REMARK  1033  A    between atoms: C_1832  and  C_1833
REMARK  1034  A    between atoms: C_1832  and  C_1835
REMARK  1035  A    between atoms: C_1835  and  C_1836
REMARK  1036  A    between atoms: N_1842  and  C_1843
REMARK  1037  A    between atoms: C_1843  and  C_1844
REMARK  1038  A    between atoms: C_1843  and  C_1846
REMARK  1039  A    between atoms: C_1846  and  C_1847
REMARK  1040  A    between atoms: C_1846  and  C_1848
REMARK  1041  A    between atoms: N_1849  and  C_1850
REMARK  1042  A    between atoms: C_1850  and  C_1851
REMARK  1043  A    between atoms: C_1850  and  C_1853
REMARK  1044  A    between atoms: C_1853  and  O_1854
REMARK  1045  A    between atoms: C_1853  and  C_1855
REMARK  1046  A    between atoms: N_1856  and  C_1857
REMARK  1047  A    between atoms: C_1858  and  C_1859
REMARK  1048  A    between atoms: C_1858  and  C_1861
REMARK  1049  A    between atoms: C_1862  and  C_1863
REMARK  1050  A    between atoms: C_1862  and  C_1864
REMARK  1051  A    between atoms: C_1863  and  C_1865
REMARK  1052  A    between atoms: N_1871  and  C_1872
REMARK  1053  A    between atoms: C_1872  and  C_1873
REMARK  1054  A    between atoms: N_1875  and  CA_1876
REMARK  1055  A    between atoms: CA_1876  and  C_1877
REMARK  1056  A    between atoms: CA_1876  and  CB_1879
REMARK  1057  A    between atoms: N_1880  and  CA_1881
REMARK  1058  A    between atoms: CA_1881  and  C_1882
REMARK  1059  A    between atoms: CA_1881  and  CB_1884
REMARK  1060  A    between atoms: CB_1884  and  CG_1885
REMARK  1061  A    between atoms: CG_1885  and  CD_1886
REMARK  1062  A    between atoms: CD_1886  and  NE_1887
REMARK  1063  A    between atoms: N_1891  and  CA_1892
REMARK  1064  A    between atoms: CA_1892  and  C_1893
REMARK  1065  A    between atoms: CA_1892  and  CB_1895
REMARK  1066  A    between atoms: CB_1895  and  CG_1896
REMARK  1067  A    between atoms: N_1899  and  CA_1900
REMARK  1068  A    between atoms: CA_1900  and  C_1901
REMARK  1069  A    between atoms: CA_1900  and  CB_1903
REMARK  1070  A    between atoms: CB_1903  and  CG_1904
REMARK  1071  A    between atoms: CG_1904  and  CD1_1905
REMARK  1072  A    between atoms: CG_1904  and  CD2_1906
REMARK  1073  A    between atoms: N_1907  and  CA_1908
REMARK  1074  A    between atoms: CA_1908  and  C_1909
REMARK  1075  A    between atoms: CA_1908  and  CB_1911
REMARK  1076  A    between atoms: CB_1911  and  CG1_1912
REMARK  1077  A    between atoms: CB_1911  and  CG2_1913
REMARK  1078  A    between atoms: CG1_1912  and  CD1_1914
REMARK  1079  A    between atoms: N_1915  and  CA_1916
REMARK  1080  A    between atoms: CA_1916  and  C_1917
REMARK  1081  A    between atoms: CA_1916  and  CB_1919
REMARK  1082  A    between atoms: CB_1919  and  OG_1920
REMARK  1083  A    between atoms: N_1921  and  CA_1922
REMARK  1084  A    between atoms: CA_1922  and  C_1923
REMARK  1085  A    between atoms: CA_1922  and  CB_1925
REMARK  1086  A    between atoms: CB_1925  and  CG_1926
REMARK  1087  A    between atoms: CG_1926  and  CD_1927
REMARK  1088  A    between atoms: CD_1927  and  NE_1928
REMARK  1089  A    between atoms: N_1932  and  CA_1933
REMARK  1090  A    between atoms: CA_1933  and  C_1934
REMARK  1091  A    between atoms: CA_1933  and  CB_1936
REMARK  1092  A    between atoms: CB_1936  and  CG_1937
REMARK  1093  A    between atoms: CG_1937  and  CD2_1938
REMARK  1094  A    between atoms: CG_1937  and  CD1_1939
REMARK  1095  A    between atoms: N_1940  and  CA_1941
REMARK  1096  A    between atoms: CA_1941  and  C_1942
REMARK  1097  A    between atoms: CA_1941  and  CB_1944
REMARK  1098  A    between atoms: CB_1944  and  CG_1945
REMARK  1099  A    between atoms: CG_1945  and  CD2_1946
REMARK  1100  A    between atoms: CG_1945  and  CD1_1947
REMARK  1101  A    between atoms: N_1948  and  CA_1949
REMARK  1102  A    between atoms: CA_1949  and  C_1950
REMARK  1103  A    between atoms: CA_1949  and  CB_1952
REMARK  1104  A    between atoms: CB_1952  and  CG_1953
REMARK  1105  A    between atoms: CG_1953  and  CD_1954
REMARK  1106  A    between atoms: CD_1954  and  CE_1955
REMARK  1107  A    between atoms: CE_1955  and  NZ_1956
REMARK  1108  A    between atoms: N_1957  and  CA_1958
REMARK  1109  A    between atoms: CA_1958  and  C_1959
REMARK  1110  A    between atoms: CA_1958  and  CB_1961
REMARK  1111  A    between atoms: CB_1961  and  CG_1962
REMARK  1112  A    between atoms: N_1967  and  CA_1968
REMARK  1113  A    between atoms: CA_1968  and  C_1969
REMARK  1114  A    between atoms: CA_1968  and  CB_1971
REMARK  1115  A    between atoms: CB_1971  and  CG_1972
REMARK  1116  A    between atoms: CA_1976  and  C_1977
REMARK  1117  A    between atoms: N_1982  and  C_1983
REMARK  1118  A    between atoms: C_1983  and  C_1984
REMARK  1119  A    between atoms: C_1983  and  C_1986
REMARK  1120  A    between atoms: C_1986  and  O_1987
REMARK  1121  A    between atoms: N_1988  and  C_1989
REMARK  1122  A    between atoms: C_1989  and  C_1990
REMARK  1123  A    between atoms: C_1989  and  C_1992
REMARK  1124  A    between atoms: C_1992  and  C_1993
REMARK  1125  A    between atoms: C_1993  and  C_1994
REMARK  1126  A    between atoms: N_1997  and  C_1998
REMARK  1127  A    between atoms: C_1998  and  C_1999
REMARK  1128  A    between atoms: C_1998  and  C_2001
REMARK  1129  A    between atoms: C_2001  and  C_2002
REMARK  1130  A    between atoms: C_2002  and  C_2003
REMARK  1131  A    between atoms: C_2003  and  N_2004
REMARK  1132  A    between atoms: C_2009  and  C_2010
REMARK  1133  A    between atoms: N_2015  and  C_2017
REMARK  1134  A    between atoms: C_2016  and  C_2018
REMARK  1135  A    between atoms: C_2016  and  C_2021
REMARK  1136  A    between atoms: C_2021  and  C_2022
REMARK  1137  A    between atoms: C_2022  and  C_2023
REMARK  1138  A    between atoms: C_2023  and  S_2024
REMARK  1139  A    between atoms: C_2023  and  S_2025
REMARK  1140  A    between atoms: S_2024  and  C_2026
REMARK  1141  A    between atoms: S_2025  and  C_2027
REMARK  1142  A    between atoms: N_2028  and  CA_2029
REMARK  1143  A    between atoms: CA_2029  and  C_2030
REMARK  1144  A    between atoms: CA_2029  and  CB_2032
REMARK  1145  A    between atoms: CB_2032  and  CG_2033
REMARK  1146  A    between atoms: CG_2033  and  CD1_2034
REMARK  1147  A    between atoms: CG_2033  and  CD2_2035
REMARK  1148  A    between atoms: N_2036  and  CA_2037
REMARK  1149  A    between atoms: CA_2037  and  C_2038
REMARK  1150  A    between atoms: CA_2037  and  CB_2040
REMARK  1151  A    between atoms: N_2041  and  CA_2042
REMARK  1152  A    between atoms: CA_2042  and  C_2043
REMARK  1153  A    between atoms: CA_2042  and  CB_2045
REMARK  1154  A    between atoms: CB_2045  and  CG_2046
REMARK  1155  A    between atoms: CG_2046  and  CD_2047
REMARK  1156  A    between atoms: N_2050  and  CA_2051
REMARK  1157  A    between atoms: CA_2051  and  C_2052
REMARK  1158  A    between atoms: CA_2051  and  CB_2054
REMARK  1159  A    between atoms: CB_2054  and  CG2_2055
REMARK  1160  A    between atoms: CB_2054  and  CG1_2056
REMARK  1161  A    between atoms: N_2057  and  CA_2058
REMARK  1162  A    between atoms: CA_2058  and  C_2059
REMARK  1163  A    between atoms: CA_2058  and  CB_2061
REMARK  1164  A    between atoms: CB_2061  and  CG_2062
REMARK  1165  A    between atoms: CG_2062  and  CD1_2063
REMARK  1166  A    between atoms: CG_2062  and  CD2_2064
REMARK  1167  A    between atoms: N_2065  and  CA_2066
REMARK  1168  A    between atoms: CA_2066  and  C_2067
REMARK  1169  A    between atoms: CA_2066  and  CB_2069
REMARK  1170  A    between atoms: CB_2069  and  CG_2070
REMARK  1171  A    between atoms: CG_2070  and  CD_2071
REMARK  1172  A    between atoms: N_2074  and  CA_2075
REMARK  1173  A    between atoms: CA_2075  and  C_2076
REMARK  1174  A    between atoms: CA_2075  and  CB_2078
REMARK  1175  A    between atoms: CB_2078  and  CG_2079
REMARK  1176  A    between atoms: CA_2085  and  C_2086
REMARK  1177  A    between atoms: N_2091  and  CA_2092
REMARK  1178  A    between atoms: CA_2092  and  C_2093
REMARK  1179  A    between atoms: CA_2092  and  CB_2095
REMARK  1180  A    between atoms: CB_2095  and  CG_2096
REMARK  1181  A    between atoms: N_2105  and  CA_2106
REMARK  1182  A    between atoms: CA_2106  and  C_2107
REMARK  1183  A    between atoms: CA_2106  and  CB_2109
REMARK  1184  A    between atoms: CB_2109  and  CG1_2110
REMARK  1185  A    between atoms: CB_2109  and  CG2_2111
REMARK  1186  A    between atoms: CG1_2110  and  CD1_2112
REMARK  1187  A    between atoms: N_2113  and  CA_2114
REMARK  1188  A    between atoms: CA_2114  and  C_2115
REMARK  1189  A    between atoms: CA_2114  and  CB_2117
REMARK  1190  A    between atoms: CB_2117  and  OG1_2118
REMARK  1191  A    between atoms: CB_2117  and  CG2_2119
REMARK  1192  A    between atoms: N_2120  and  CA_2121
REMARK  1193  A    between atoms: CA_2121  and  C_2122
REMARK  1194  A    between atoms: CA_2121  and  CB_2124
REMARK  1195  A    between atoms: N_2125  and  CA_2126
REMARK  1196  A    between atoms: CA_2126  and  C_2127
REMARK  1197  A    between atoms: CA_2126  and  CB_2129
REMARK  1198  A    between atoms: CB_2129  and  CG_2130
REMARK  1199  A    between atoms: N_2133  and  CA_2134
REMARK  1200  A    between atoms: CA_2134  and  C_2135
REMARK  1201  A    between atoms: CA_2134  and  CB_2137
REMARK  1202  A    between atoms: CB_2137  and  OG_2138
REMARK  1203  A    between atoms: N_2139  and  CA_2140
REMARK  1204  A    between atoms: CA_2140  and  C_2141
REMARK  1205  A    between atoms: CA_2140  and  CB_2143
REMARK  1206  A    between atoms: CB_2143  and  OG_2144
REMARK  1207  A    between atoms: N_2145  and  C_2146
REMARK  1208  A    between atoms: C_2146  and  C_2147
REMARK  1209  A    between atoms: C_2146  and  C_2149
REMARK  1210  A    between atoms: C_2149  and  C_2150
REMARK  1211  A    between atoms: N_2151  and  CA_2152
REMARK  1212  A    between atoms: CA_2152  and  C_2153
REMARK  1213  A    between atoms: CA_2152  and  CB_2155
REMARK  1214  A    between atoms: CB_2155  and  OG_2156
REMARK  1215  A    between atoms: N_2157  and  CA_2158
REMARK  1216  A    between atoms: CA_2158  and  C_2159
REMARK  1217  A    between atoms: CA_2158  and  CB_2161
REMARK  1218  A    between atoms: CB_2161  and  CG_2162
REMARK  1219  A    between atoms: CG_2162  and  CD_2163
REMARK  1220  A    between atoms: CA_2167  and  C_2168
REMARK  1221  A    between atoms: CA_2174  and  C_2175
REMARK  1222  A    between atoms: N_2180  and  CA_2181
REMARK  1223  A    between atoms: CA_2181  and  C_2182
REMARK  1224  A    between atoms: CA_2181  and  CB_2184
REMARK  1225  A    between atoms: CB_2184  and  OG_2185
REMARK  1226  A    between atoms: N_2186  and  CA_2187
REMARK  1227  A    between atoms: CA_2187  and  C_2188
REMARK  1228  A    between atoms: CA_2187  and  CB_2190
REMARK  1229  A    between atoms: CB_2190  and  CG_2191
REMARK  1230  A    between atoms: N_2200  and  CA_2201
REMARK  1231  A    between atoms: CA_2201  and  C_2202
REMARK  1232  A    between atoms: CA_2201  and  CB_2204
REMARK  1233  A    between atoms: CB_2204  and  CG2_2205
REMARK  1234  A    between atoms: CB_2204  and  CG1_2206
REMARK  1235  A    between atoms: N_2207  and  CA_2208
REMARK  1236  A    between atoms: CA_2208  and  C_2209
REMARK  1237  A    between atoms: CA_2208  and  CB_2211
REMARK  1238  A    between atoms: CB_2211  and  OG1_2212
REMARK  1239  A    between atoms: CB_2211  and  CG2_2213
REMARK  1240  A    between atoms: N_2214  and  CA_2215
REMARK  1241  A    between atoms: CA_2215  and  C_2216
REMARK  1242  A    between atoms: CA_2215  and  CB_2218
REMARK  1243  A    between atoms: CB_2218  and  CG_2219
REMARK  1244  A    between atoms: CG_2219  and  CD_2220
REMARK  1245  A    between atoms: N_2223  and  CA_2224
REMARK  1246  A    between atoms: CA_2224  and  C_2225
REMARK  1247  A    between atoms: CA_2224  and  CB_2227
REMARK  1248  A    between atoms: CB_2227  and  CG_2228
REMARK  1249  A    between atoms: CG_2228  and  SD_2229
REMARK  1250  A    between atoms: SD_2229  and  CE_2230
REMARK  1251  A    between atoms: N_2231  and  CA_2232
REMARK  1252  A    between atoms: CA_2232  and  C_2233
REMARK  1253  A    between atoms: CA_2232  and  CB_2235
REMARK  1254  A    between atoms: CB_2235  and  CG_2236
REMARK  1255  A    between atoms: CG_2236  and  CD1_2237
REMARK  1256  A    between atoms: CG_2236  and  CD2_2238
REMARK  1257  A    between atoms: N_2239  and  CA_2240
REMARK  1258  A    between atoms: CA_2240  and  C_2241
REMARK  1259  A    between atoms: CA_2240  and  CB_2243
REMARK  1260  A    between atoms: CB_2243  and  CG_2244
REMARK  1261  A    between atoms: CG_2244  and  CD1_2245
REMARK  1262  A    between atoms: CG_2244  and  CD2_2246
REMARK  1263  A    between atoms: N_2247  and  CA_2248
REMARK  1264  A    between atoms: CA_2248  and  C_2249
REMARK  1265  A    between atoms: CA_2248  and  CB_2251
REMARK  1266  A    between atoms: CB_2251  and  CG_2252
REMARK  1267  A    between atoms: CG_2252  and  CD_2253
REMARK  1268  A    between atoms: N_2256  and  CA_2257
REMARK  1269  A    between atoms: CA_2257  and  C_2258
REMARK  1270  A    between atoms: CA_2257  and  CB_2260
REMARK  1271  A    between atoms: CB_2260  and  CG_2261
REMARK  1272  A    between atoms: CG_2261  and  CD_2262
REMARK  1273  A    between atoms: CD_2262  and  CE_2263
REMARK  1274  A    between atoms: CE_2263  and  NZ_2264
REMARK  1275  A    between atoms: N_2265  and  C_2266
REMARK  1276  A    between atoms: C_2266  and  C_2267
REMARK  1277  A    between atoms: C_2266  and  C_2269
REMARK  1278  A    between atoms: C_2269  and  C_2270
REMARK  1279  A    between atoms: N_2271  and  CA_2272
REMARK  1280  A    between atoms: CA_2272  and  C_2273
REMARK  1281  A    between atoms: CA_2272  and  CB_2275
REMARK  1282  A    between atoms: CB_2275  and  CG_2276
REMARK  1283  A    between atoms: CG_2276  and  CD2_2277
REMARK  1284  A    between atoms: CG_2276  and  CD1_2278
REMARK  1285  A    between atoms: N_2279  and  CA_2280
REMARK  1286  A    between atoms: CA_2280  and  C_2281
REMARK  1287  A    between atoms: CA_2280  and  CB_2283
REMARK  1288  A    between atoms: CB_2283  and  CG_2284
REMARK  1289  A    between atoms: N_2293  and  CA_2294
REMARK  1290  A    between atoms: CA_2294  and  C_2295
REMARK                            x       y       z     vdW  Elec       q    Type
REMARK                         _______ _______ _______ _____ _____    ______ ____
ROOT
ATOM      1  C   UNL     5     -41.058  36.953   7.200  0.00  0.00    +0.110 C 
ATOM      2  C   UNL     5     -40.834  37.198   8.707  0.00  0.00    +0.143 C 
ENDROOT
BRANCH   2   3
ATOM      3  N   UNL     5     -40.654  36.146   9.471  0.00  0.00    +0.248 N 
ATOM      4  H   UNL     5     -40.765  35.299   8.914  0.00  0.00    +0.203 HD
ATOM      5  H   UNL     5     -41.342  36.151  10.224  0.00  0.00    +0.203 HD
ATOM      6  H   UNL     5     -39.715  36.171   9.868  0.00  0.00    +0.203 HD
ENDBRANCH   2   3
BRANCH   2   7
ATOM      7  C   UNL     5     -41.582  36.722   8.732  0.00  0.00    +0.310 C 
ATOM      8  O   UNL     5     -42.722  36.947   9.151  0.00  0.00    -0.292 OA
ENDBRANCH   2   7
BRANCH   2   9
ATOM      9  O   UNL     5     -40.748  38.340   9.164  0.00  0.00    -0.344 OA
ATOM     10  H   UNL     5     -40.910  38.984   8.457  0.00  0.00    +0.216 HD
ENDBRANCH   2   9
TORSDOF 3
REMARK  Name = /Users/wangyang/Desktop/Breast_cancer_brain_metastasis/wang_Gene/AIDD/15_Protein_ligand_docking/data_7ztl/protein.pdb
REMARK  1290 active torsions:
REMARK  status: ('A' for Active; 'I' for Inactive)
REMARK    1  A    between atoms: N_1  and  CA_2
REMARK    2  A    between atoms: CA_2  and  C_3
REMARK    3  A    between atoms: N_5  and  CA_6
REMARK    4  A    between atoms: CA_6  and  C_7
REMARK    5  A    between atoms: CA_6  and  CB_9
REMARK    6  A    between atoms: N_10  and  CA_11
REMARK    7  A    between atoms: CA_11  and  C_12
REMARK    8  A    between atoms: CA_11  and  CB_14
REMARK    9  A    between atoms: CB_14  and  CG_15
REMARK   10  A    between atoms: N_24  and  CA_25
REMARK   11  A    between atoms: CA_25  and  C_26
REMARK   12  A    between atoms: CA_25  and  CB_28
REMARK   13  A    between atoms: N_29  and  CA_30
REMARK   14  A    between atoms: CA_30  and  C_31
REMARK   15  A    between atoms: CA_30  and  CB_33
REMARK   16  A    between atoms: CB_33  and  CG_34
REMARK   17  A    between atoms: CG_34  and  CD1_35
REMARK   18  A    between atoms: CG_34  and  CD2_36
REMARK   19  A    between atoms: N_37  and  CA_38
REMARK   20  A    between atoms: CA_38  and  C_39
REMARK   21  A    between atoms: CA_38  and  CB_41
REMARK   22  A    between atoms: CB_41  and  CG_42
REMARK   23  A    between atoms: CG_42  and  CD_43
REMARK   24  A    between atoms: N_46  and  CA_47
REMARK   25  A    between atoms: CA_47  and  C_48
REMARK   26  A    between atoms: CA_47  and  CB_50
REMARK   27  A    between atoms: CB_50  and  CG_51
REMARK   28  A    between atoms: N_54  and  CA_55
REMARK   29  A    between atoms: CA_55  and  C_56
REMARK   30  A    between atoms: CA_55  and  CB_58
REMARK   31  A    between atoms: CB_58  and  CG_59
REMARK   32  A    between atoms: N_65  and  CA_66
REMARK   33  A    between atoms: CA_66  and  C_67
REMARK   34  A    between atoms: CA_66  and  CB_69
REMARK   35  A    between atoms: CB_69  and  CG_70
REMARK   36  A    between atoms: CG_70  and  CD_71
REMARK   37  A    between atoms: N_74  and  CA_75
REMARK   38  A    between atoms: CA_75  and  C_76
REMARK   39  A    between atoms: CA_75  and  CB_78
REMARK   40  A    between atoms: CB_78  and  CG1_79
REMARK   41  A    between atoms: CB_78  and  CG2_80
REMARK   42  A    between atoms: CG1_79  and  CD1_81
REMARK   43  A    between atoms: N_82  and  CA_83
REMARK   44  A    between atoms: CA_83  and  C_84
REMARK   45  A    between atoms: N_86  and  CA_87
REMARK   46  A    between atoms: CA_87  and  C_88
REMARK   47  A    between atoms: CA_87  and  CB_90
REMARK   48  A    between atoms: CB_90  and  CG_91
REMARK   49  A    between atoms: CG_91  and  CD_92
REMARK   50  A    between atoms: CD_92  and  NE_93
REMARK   51  A    between atoms: CA_98  and  C_99
REMARK   52  A    between atoms: N_104  and  CA_105
REMARK   53  A    between atoms: CA_105  and  C_106
REMARK   54  A    between atoms: CA_105  and  CB_108
REMARK   55  A    between atoms: CB_108  and  CG_109
REMARK   56  A    between atoms: CG_109  and  CD1_110
REMARK   57  A    between atoms: CG_109  and  CD2_111
REMARK   58  A    between atoms: N_112  and  CA_113
REMARK   59  A    between atoms: CA_113  and  C_114
REMARK   60  A    between atoms: N_116  and  C_117
REMARK   61  A    between atoms: C_117  and  C_118
REMARK   62  A    between atoms: C_117  and  C_120
REMARK   63  A    between atoms: C_120  and  C_121
REMARK   64  A    between atoms: C_121  and  C_122
REMARK   65  A    between atoms: N_123  and  CA_124
REMARK   66  A    between atoms: CA_124  and  C_125
REMARK   67  A    between atoms: N_127  and  CA_128
REMARK   68  A    between atoms: CA_128  and  C_129
REMARK   69  A    between atoms: CA_128  and  CB_131
REMARK   70  A    between atoms: CB_131  and  CG_132
REMARK   71  A    between atoms: CG_132  and  CD_133
REMARK   72  A    between atoms: CD_133  and  CE_134
REMARK   73  A    between atoms: CE_134  and  NZ_135
REMARK   74  A    between atoms: N_136  and  CA_137
REMARK   75  A    between atoms: CA_137  and  C_138
REMARK   76  A    between atoms: CA_137  and  CB_140
REMARK   77  A    between atoms: CB_140  and  CG_141
REMARK   78  A    between atoms: N_147  and  CA_148
REMARK   79  A    between atoms: CA_148  and  C_149
REMARK   80  A    between atoms: N_151  and  CA_152
REMARK   81  A    between atoms: CA_152  and  C_153
REMARK   82  A    between atoms: CA_152  and  CB_155
REMARK   83  A    between atoms: CB_155  and  CG_156
REMARK   84  A    between atoms: N_159  and  CA_160
REMARK   85  A    between atoms: CA_160  and  C_161
REMARK   86  A    between atoms: CA_160  and  CB_163
REMARK   87  A    between atoms: CB_163  and  CG1_164
REMARK   88  A    between atoms: CB_163  and  CG2_165
REMARK   89  A    between atoms: N_166  and  CA_167
REMARK   90  A    between atoms: CA_167  and  C_168
REMARK   91  A    between atoms: CA_167  and  CB_170
REMARK   92  A    between atoms: CB_170  and  CG_171
REMARK   93  A    between atoms: CZ_176  and  OH_177
REMARK   94  A    between atoms: N_178  and  CA_179
REMARK   95  A    between atoms: CA_179  and  C_180
REMARK   96  A    between atoms: CA_179  and  CB_182
REMARK   97  A    between atoms: CB_182  and  CG_183
REMARK   98  A    between atoms: CG_183  and  CD1_184
REMARK   99  A    between atoms: CG_183  and  CD2_185
REMARK  100  A    between atoms: N_186  and  CA_187
REMARK  101  A    between atoms: CA_187  and  C_188
REMARK  102  A    between atoms: CA_187  and  CB_190
REMARK  103  A    between atoms: N_191  and  CA_192
REMARK  104  A    between atoms: CA_192  and  C_193
REMARK  105  A    between atoms: CA_192  and  CB_195
REMARK  106  A    between atoms: CB_195  and  CG_196
REMARK  107  A    between atoms: CG_196  and  CD_197
REMARK  108  A    between atoms: CD_197  and  NE_198
REMARK  109  A    between atoms: N_202  and  CA_203
REMARK  110  A    between atoms: CA_203  and  C_204
REMARK  111  A    between atoms: CA_203  and  CB_206
REMARK  112  A    between atoms: CB_206  and  CG_207
REMARK  113  A    between atoms: CG_207  and  CD_208
REMARK  114  A    between atoms: N_211  and  CA_212
REMARK  115  A    between atoms: CA_212  and  C_213
REMARK  116  A    between atoms: CA_212  and  CB_215
REMARK  117  A    between atoms: CB_215  and  CG_216
REMARK  118  A    between atoms: CG_216  and  CD_217
REMARK  119  A    between atoms: CD_217  and  CE_218
REMARK  120  A    between atoms: CE_218  and  NZ_219
REMARK  121  A    between atoms: N_220  and  CA_221
REMARK  122  A    between atoms: CA_221  and  C_222
REMARK  123  A    between atoms: CA_221  and  CB_224
REMARK  124  A    between atoms: N_225  and  CA_226
REMARK  125  A    between atoms: CA_226  and  C_227
REMARK  126  A    between atoms: CA_226  and  CB_229
REMARK  127  A    between atoms: CB_229  and  OG_230
REMARK  128  A    between atoms: N_231  and  CA_232
REMARK  129  A    between atoms: CA_232  and  C_233
REMARK  130  A    between atoms: CA_232  and  CB_235
REMARK  131  A    between atoms: CB_235  and  CG_236
REMARK  132  A    between atoms: CG_236  and  CD_237
REMARK  133  A    between atoms: CD_237  and  CE_238
REMARK  134  A    between atoms: CE_238  and  NZ_239
REMARK  135  A    between atoms: N_240  and  CA_241
REMARK  136  A    between atoms: CA_241  and  C_242
REMARK  137  A    between atoms: CA_241  and  CB_244
REMARK  138  A    between atoms: CB_244  and  CG_245
REMARK  139  A    between atoms: N_251  and  CA_252
REMARK  140  A    between atoms: CA_252  and  C_253
REMARK  141  A    between atoms: CA_252  and  CB_255
REMARK  142  A    between atoms: CB_255  and  CG1_256
REMARK  143  A    between atoms: CB_255  and  CG2_257
REMARK  144  A    between atoms: CG1_256  and  CD1_258
REMARK  145  A    between atoms: N_259  and  CA_260
REMARK  146  A    between atoms: CA_260  and  C_261
REMARK  147  A    between atoms: CA_260  and  CB_263
REMARK  148  A    between atoms: CB_263  and  CG_264
REMARK  149  A    between atoms: CG_264  and  CD1_265
REMARK  150  A    between atoms: CG_264  and  CD2_266
REMARK  151  A    between atoms: N_267  and  CA_268
REMARK  152  A    between atoms: CA_268  and  C_269
REMARK  153  A    between atoms: CA_268  and  CB_271
REMARK  154  A    between atoms: N_272  and  CA_273
REMARK  155  A    between atoms: CA_273  and  C_274
REMARK  156  A    between atoms: CA_273  and  CB_276
REMARK  157  A    between atoms: CB_276  and  CG_277
REMARK  158  A    between atoms: CG_277  and  CD2_278
REMARK  159  A    between atoms: CG_277  and  CD1_279
REMARK  160  A    between atoms: N_280  and  CA_281
REMARK  161  A    between atoms: CA_281  and  C_282
REMARK  162  A    between atoms: CA_281  and  CB_284
REMARK  163  A    between atoms: CB_284  and  CG_285
REMARK  164  A    between atoms: CG_285  and  CD_286
REMARK  165  A    between atoms: CD_286  and  CE_287
REMARK  166  A    between atoms: CE_287  and  NZ_288
REMARK  167  A    between atoms: N_289  and  CA_290
REMARK  168  A    between atoms: CA_290  and  C_291
REMARK  169  A    between atoms: CA_290  and  CB_293
REMARK  170  A    between atoms: CB_293  and  CG2_294
REMARK  171  A    between atoms: CB_293  and  CG1_295
REMARK  172  A    between atoms: N_296  and  CA_297
REMARK  173  A    between atoms: CA_297  and  C_298
REMARK  174  A    between atoms: CA_297  and  CB_300
REMARK  175  A    between atoms: CB_300  and  CG_301
REMARK  176  A    between atoms: CG_301  and  CD1_302
REMARK  177  A    between atoms: CG_301  and  CD2_303
REMARK  178  A    between atoms: N_304  and  CA_305
REMARK  179  A    between atoms: CA_305  and  C_306
REMARK  180  A    between atoms: CA_305  and  CB_308
REMARK  181  A    between atoms: CB_308  and  CG_309
REMARK  182  A    between atoms: N_315  and  CA_316
REMARK  183  A    between atoms: CA_316  and  C_317
REMARK  184  A    between atoms: CA_316  and  CB_319
REMARK  185  A    between atoms: CB_319  and  CG_320
REMARK  186  A    between atoms: CG_320  and  CD_321
REMARK  187  A    between atoms: CD_321  and  CE_322
REMARK  188  A    between atoms: CE_322  and  NZ_323
REMARK  189  A    between atoms: N_324  and  CA_325
REMARK  190  A    between atoms: CA_325  and  C_326
REMARK  191  A    between atoms: CA_325  and  CB_328
REMARK  192  A    between atoms: N_329  and  CA_330
REMARK  193  A    between atoms: CA_330  and  C_331
REMARK  194  A    between atoms: CA_330  and  CB_333
REMARK  195  A    between atoms: CB_333  and  CG_334
REMARK  196  A    between atoms: CG_334  and  CD_335
REMARK  197  A    between atoms: N_338  and  CA_339
REMARK  198  A    between atoms: CA_339  and  C_340
REMARK  199  A    between atoms: CA_339  and  CB_342
REMARK  200  A    between atoms: CB_342  and  CG_343
REMARK  201  A    between atoms: CG_343  and  CD1_344
REMARK  202  A    between atoms: CG_343  and  CD2_345
REMARK  203  A    between atoms: N_346  and  CA_347
REMARK  204  A    between atoms: CA_347  and  C_348
REMARK  205  A    between atoms: CA_347  and  CB_350
REMARK  206  A    between atoms: CB_350  and  CG_351
REMARK  207  A    between atoms: CG_351  and  CD_352
REMARK  208  A    between atoms: N_355  and  C_356
REMARK  209  A    between atoms: C_356  and  C_357
REMARK  210  A    between atoms: C_356  and  C_359
REMARK  211  A    between atoms: C_359  and  C_360
REMARK  212  A    between atoms: N_361  and  CA_362
REMARK  213  A    between atoms: CA_362  and  C_363
REMARK  214  A    between atoms: CA_362  and  CB_365
REMARK  215  A    between atoms: N_366  and  CA_367
REMARK  216  A    between atoms: CA_367  and  C_368
REMARK  217  A    between atoms: N_370  and  CA_371
REMARK  218  A    between atoms: CA_371  and  C_372
REMARK  219  A    between atoms: CA_371  and  CB_374
REMARK  220  A    between atoms: CB_374  and  CG2_375
REMARK  221  A    between atoms: CB_374  and  CG1_376
REMARK  222  A    between atoms: N_377  and  CA_378
REMARK  223  A    between atoms: CA_378  and  C_379
REMARK  224  A    between atoms: CA_378  and  CB_381
REMARK  225  A    between atoms: CB_381  and  CG_382
REMARK  226  A    between atoms: CG_382  and  CD_383
REMARK  227  A    between atoms: N_386  and  CA_387
REMARK  228  A    between atoms: CA_387  and  C_388
REMARK  229  A    between atoms: CA_387  and  CB_390
REMARK  230  A    between atoms: CB_390  and  CG_391
REMARK  231  A    between atoms: N_396  and  CA_397
REMARK  232  A    between atoms: CA_397  and  C_398
REMARK  233  A    between atoms: CA_397  and  CB_400
REMARK  234  A    between atoms: CB_400  and  CG_401
REMARK  235  A    between atoms: CG_401  and  CD_402
REMARK  236  A    between atoms: N_405  and  CA_406
REMARK  237  A    between atoms: CA_406  and  C_407
REMARK  238  A    between atoms: CA_406  and  CB_409
REMARK  239  A    between atoms: CB_409  and  CG_410
REMARK  240  A    between atoms: CG_410  and  CD2_411
REMARK  241  A    between atoms: CG_410  and  CD1_412
REMARK  242  A    between atoms: N_413  and  CA_414
REMARK  243  A    between atoms: CA_414  and  C_415
REMARK  244  A    between atoms: CA_414  and  CB_417
REMARK  245  A    between atoms: CB_417  and  CG_418
REMARK  246  A    between atoms: CG_418  and  CD_419
REMARK  247  A    between atoms: CD_419  and  NE_420
REMARK  248  A    between atoms: N_424  and  CA_425
REMARK  249  A    between atoms: CA_425  and  C_426
REMARK  250  A    between atoms: CA_425  and  CB_428
REMARK  251  A    between atoms: CB_428  and  CG_429
REMARK  252  A    between atoms: CG_429  and  CD_430
REMARK  253  A    between atoms: CD_430  and  NE_431
REMARK  254  A    between atoms: N_435  and  CA_436
REMARK  255  A    between atoms: CA_436  and  C_437
REMARK  256  A    between atoms: CA_436  and  CB_439
REMARK  257  A    between atoms: CB_439  and  CG_440
REMARK  258  A    between atoms: CG_440  and  CD_441
REMARK  259  A    between atoms: N_444  and  CA_445
REMARK  260  A    between atoms: CA_445  and  C_446
REMARK  261  A    between atoms: CA_445  and  CB_448
REMARK  262  A    between atoms: CB_448  and  CG1_449
REMARK  263  A    between atoms: CB_448  and  CG2_450
REMARK  264  A    between atoms: N_451  and  C_452
REMARK  265  A    between atoms: C_452  and  C_453
REMARK  266  A    between atoms: C_452  and  C_455
REMARK  267  A    between atoms: C_455  and  C_456
REMARK  268  A    between atoms: N_457  and  CA_458
REMARK  269  A    between atoms: CA_458  and  C_459
REMARK  270  A    between atoms: CA_458  and  CB_461
REMARK  271  A    between atoms: CB_461  and  CG1_462
REMARK  272  A    between atoms: CB_461  and  CG2_463
REMARK  273  A    between atoms: CG1_462  and  CD1_464
REMARK  274  A    between atoms: N_465  and  CA_466
REMARK  275  A    between atoms: CA_466  and  C_467
REMARK  276  A    between atoms: CA_466  and  CB_469
REMARK  277  A    between atoms: CB_469  and  CG_470
REMARK  278  A    between atoms: CG_470  and  CD_471
REMARK  279  A    between atoms: N_474  and  C_475
REMARK  280  A    between atoms: C_475  and  C_476
REMARK  281  A    between atoms: C_475  and  C_478
REMARK  282  A    between atoms: C_478  and  O_479
REMARK  283  A    between atoms: N_480  and  C_481
REMARK  284  A    between atoms: C_481  and  C_482
REMARK  285  A    between atoms: C_481  and  C_484
REMARK  286  A    between atoms: C_484  and  C_485
REMARK  287  A    between atoms: N_490  and  C_491
REMARK  288  A    between atoms: C_491  and  C_492
REMARK  289  A    between atoms: C_491  and  C_494
REMARK  290  A    between atoms: C_494  and  C_495
REMARK  291  A    between atoms: C_495  and  C_496
REMARK  292  A    between atoms: C_495  and  C_497
REMARK  293  A    between atoms: N_498  and  C_499
REMARK  294  A    between atoms: C_499  and  C_500
REMARK  295  A    between atoms: C_499  and  C_502
REMARK  296  A    between atoms: C_502  and  C_503
REMARK  297  A    between atoms: C_503  and  C_504
REMARK  298  A    between atoms: C_504  and  N_505
REMARK  299  A    between atoms: N_509  and  C_510
REMARK  300  A    between atoms: C_510  and  C_511
REMARK  301  A    between atoms: C_510  and  C_513
REMARK  302  A    between atoms: C_513  and  C_514
REMARK  303  A    between atoms: C_520  and  C_521
REMARK  304  A    between atoms: N_526  and  C_527
REMARK  305  A    between atoms: C_527  and  C_528
REMARK  306  A    between atoms: C_527  and  C_530
REMARK  307  A    between atoms: C_530  and  C_531
REMARK  308  A    between atoms: N_534  and  C_535
REMARK  309  A    between atoms: C_535  and  C_536
REMARK  310  A    between atoms: C_535  and  C_538
REMARK  311  A    between atoms: C_538  and  C_539
REMARK  312  A    between atoms: C_538  and  C_540
REMARK  313  A    between atoms: C_539  and  C_541
REMARK  314  A    between atoms: N_542  and  C_543
REMARK  315  A    between atoms: C_543  and  C_544
REMARK  316  A    between atoms: C_543  and  C_546
REMARK  317  A    between atoms: C_546  and  C_547
REMARK  318  A    between atoms: C_547  and  C_548
REMARK  319  A    between atoms: C_547  and  C_549
REMARK  320  A    between atoms: N_550  and  C_551
REMARK  321  A    between atoms: C_551  and  C_552
REMARK  322  A    between atoms: C_551  and  C_554
REMARK  323  A    between atoms: C_554  and  C_555
REMARK  324  A    between atoms: C_555  and  C_556
REMARK  325  A    between atoms: C_556  and  N_557
REMARK  326  A    between atoms: N_561  and  C_562
REMARK  327  A    between atoms: C_562  and  C_567
REMARK  328  A    between atoms: C_563  and  C_564
REMARK  329  A    between atoms: C_568  and  C_569
REMARK  330  A    between atoms: C_568  and  C_571
REMARK  331  A    between atoms: C_569  and  C_572
REMARK  332  A    between atoms: C_569  and  C_573
REMARK  333  A    between atoms: C_570  and  C_573
REMARK  334  A    between atoms: N_574  and  CA_575
REMARK  335  A    between atoms: CA_575  and  C_576
REMARK  336  A    between atoms: CA_575  and  CB_578
REMARK  337  A    between atoms: CB_578  and  CG_579
REMARK  338  A    between atoms: CZ_584  and  OH_585
REMARK  339  A    between atoms: N_586  and  CA_587
REMARK  340  A    between atoms: CA_587  and  C_588
REMARK  341  A    between atoms: N_590  and  CA_591
REMARK  342  A    between atoms: CA_591  and  C_592
REMARK  343  A    between atoms: CA_591  and  CB_594
REMARK  344  A    between atoms: CB_594  and  CG_595
REMARK  345  A    between atoms: CZ_600  and  OH_601
REMARK  346  A    between atoms: N_602  and  CA_603
REMARK  347  A    between atoms: CA_603  and  C_604
REMARK  348  A    between atoms: CA_603  and  CB_606
REMARK  349  A    between atoms: CB_606  and  CG_607
REMARK  350  A    between atoms: N_613  and  CA_614
REMARK  351  A    between atoms: CA_614  and  C_615
REMARK  352  A    between atoms: CA_614  and  CB_617
REMARK  353  A    between atoms: CB_617  and  CG_618
REMARK  354  A    between atoms: N_623  and  CA_624
REMARK  355  A    between atoms: CA_624  and  C_625
REMARK  356  A    between atoms: CA_624  and  CB_627
REMARK  357  A    between atoms: CB_627  and  CG_628
REMARK  358  A    between atoms: N_631  and  CA_632
REMARK  359  A    between atoms: CA_632  and  C_633
REMARK  360  A    between atoms: CA_632  and  CB_635
REMARK  361  A    between atoms: N_636  and  CA_637
REMARK  362  A    between atoms: CA_637  and  C_638
REMARK  363  A    between atoms: CA_637  and  CB_640
REMARK  364  A    between atoms: CB_640  and  OG1_641
REMARK  365  A    between atoms: CB_640  and  CG2_642
REMARK  366  A    between atoms: N_643  and  CA_644
REMARK  367  A    between atoms: CA_644  and  C_645
REMARK  368  A    between atoms: CA_644  and  CB_647
REMARK  369  A    between atoms: CB_647  and  CG_648
REMARK  370  A    between atoms: CG_648  and  CD_649
REMARK  371  A    between atoms: CD_649  and  NE_650
REMARK  372  A    between atoms: N_654  and  CA_655
REMARK  373  A    between atoms: CA_655  and  C_656
REMARK  374  A    between atoms: CA_655  and  CB_658
REMARK  375  A    between atoms: CB_658  and  CG1_659
REMARK  376  A    between atoms: CB_658  and  CG2_660
REMARK  377  A    between atoms: N_661  and  CA_662
REMARK  378  A    between atoms: CA_662  and  C_663
REMARK  379  A    between atoms: CA_662  and  CB_665
REMARK  380  A    between atoms: CB_665  and  CG_666
REMARK  381  A    between atoms: CZ_671  and  OH_672
REMARK  382  A    between atoms: N_673  and  CA_674
REMARK  383  A    between atoms: CA_674  and  C_675
REMARK  384  A    between atoms: CA_674  and  CB_677
REMARK  385  A    between atoms: CB_677  and  CG_678
REMARK  386  A    between atoms: CG_678  and  CD2_679
REMARK  387  A    between atoms: CG_678  and  CD1_680
REMARK  388  A    between atoms: N_681  and  CA_682
REMARK  389  A    between atoms: CA_682  and  C_683
REMARK  390  A    between atoms: CA_682  and  CB_685
REMARK  391  A    between atoms: CB_685  and  CG1_686
REMARK  392  A    between atoms: CB_685  and  CG2_687
REMARK  393  A    between atoms: CG1_686  and  CD1_688
REMARK  394  A    between atoms: N_689  and  CA_690
REMARK  395  A    between atoms: CA_690  and  C_691
REMARK  396  A    between atoms: CA_690  and  CB_693
REMARK  397  A    between atoms: CB_693  and  CG_694
REMARK  398  A    between atoms: CG_694  and  CD2_695
REMARK  399  A    between atoms: CG_694  and  CD1_696
REMARK  400  A    between atoms: N_697  and  CA_698
REMARK  401  A    between atoms: CA_698  and  C_699
REMARK  402  A    between atoms: CA_698  and  CB_701
REMARK  403  A    between atoms: CB_701  and  CG_702
REMARK  404  A    between atoms: CG_702  and  CD_703
REMARK  405  A    between atoms: N_706  and  CA_707
REMARK  406  A    between atoms: CA_707  and  C_708
REMARK  407  A    between atoms: CA_707  and  CB_710
REMARK  408  A    between atoms: CB_710  and  CG_711
REMARK  409  A    between atoms: CZ_716  and  OH_717
REMARK  410  A    between atoms: N_718  and  CA_719
REMARK  411  A    between atoms: CA_719  and  C_720
REMARK  412  A    between atoms: CA_719  and  CB_722
REMARK  413  A    between atoms: CA_724  and  C_725
REMARK  414  A    between atoms: N_730  and  CA_731
REMARK  415  A    between atoms: CA_731  and  C_732
REMARK  416  A    between atoms: CA_731  and  CB_734
REMARK  417  A    between atoms: CB_734  and  CG_735
REMARK  418  A    between atoms: CG_735  and  CD1_736
REMARK  419  A    between atoms: CG_735  and  CD2_737
REMARK  420  A    between atoms: N_738  and  CA_739
REMARK  421  A    between atoms: CA_739  and  C_740
REMARK  422  A    between atoms: N_742  and  CA_743
REMARK  423  A    between atoms: CA_743  and  C_744
REMARK  424  A    between atoms: CA_743  and  CB_746
REMARK  425  A    between atoms: CB_746  and  OG1_747
REMARK  426  A    between atoms: CB_746  and  CG2_748
REMARK  427  A    between atoms: N_749  and  CA_750
REMARK  428  A    between atoms: CA_750  and  C_751
REMARK  429  A    between atoms: CA_750  and  CB_753
REMARK  430  A    between atoms: CB_753  and  CG2_754
REMARK  431  A    between atoms: CB_753  and  CG1_755
REMARK  432  A    between atoms: N_756  and  CA_757
REMARK  433  A    between atoms: CA_757  and  C_758
REMARK  434  A    between atoms: CA_757  and  CB_760
REMARK  435  A    between atoms: CB_760  and  CG_761
REMARK  436  A    between atoms: CZ_766  and  OH_767
REMARK  437  A    between atoms: N_768  and  C_769
REMARK  438  A    between atoms: C_769  and  C_770
REMARK  439  A    between atoms: C_769  and  C_772
REMARK  440  A    between atoms: C_772  and  C_773
REMARK  441  A    between atoms: N_774  and  CA_775
REMARK  442  A    between atoms: CA_775  and  C_776
REMARK  443  A    between atoms: CA_775  and  CB_778
REMARK  444  A    between atoms: CB_778  and  CG_779
REMARK  445  A    between atoms: CG_779  and  CD_780
REMARK  446  A    between atoms: N_783  and  CA_784
REMARK  447  A    between atoms: CA_784  and  C_785
REMARK  448  A    between atoms: CA_784  and  CB_787
REMARK  449  A    between atoms: CB_787  and  CG_788
REMARK  450  A    between atoms: CG_788  and  CD2_789
REMARK  451  A    between atoms: CG_788  and  CD1_790
REMARK  452  A    between atoms: N_791  and  CA_792
REMARK  453  A    between atoms: CA_792  and  C_793
REMARK  454  A    between atoms: CA_792  and  CB_795
REMARK  455  A    between atoms: CB_795  and  CG_796
REMARK  456  A    between atoms: CG_796  and  CD_797
REMARK  457  A    between atoms: N_800  and  CA_801
REMARK  458  A    between atoms: CA_801  and  C_802
REMARK  459  A    between atoms: CA_801  and  CB_804
REMARK  460  A    between atoms: CB_804  and  CG_805
REMARK  461  A    between atoms: CG_805  and  CD_806
REMARK  462  A    between atoms: CD_806  and  CE_807
REMARK  463  A    between atoms: CE_807  and  NZ_808
REMARK  464  A    between atoms: N_809  and  CA_810
REMARK  465  A    between atoms: CA_810  and  C_811
REMARK  466  A    between atoms: CA_810  and  CB_813
REMARK  467  A    between atoms: CB_813  and  CG_814
REMARK  468  A    between atoms: CG_814  and  CD1_815
REMARK  469  A    between atoms: CG_814  and  CD2_816
REMARK  470  A    between atoms: N_817  and  CA_818
REMARK  471  A    between atoms: CA_818  and  C_819
REMARK  472  A    between atoms: CA_818  and  CB_821
REMARK  473  A    between atoms: CB_821  and  OG_822
REMARK  474  A    between atoms: N_823  and  CA_824
REMARK  475  A    between atoms: CA_824  and  C_825
REMARK  476  A    between atoms: CA_824  and  CB_827
REMARK  477  A    between atoms: CB_827  and  CG_828
REMARK  478  A    between atoms: CG_828  and  CD_829
REMARK  479  A    between atoms: CD_829  and  CE_830
REMARK  480  A    between atoms: CE_830  and  NZ_831
REMARK  481  A    between atoms: N_832  and  CA_833
REMARK  482  A    between atoms: CA_833  and  C_834
REMARK  483  A    between atoms: CA_833  and  CB_836
REMARK  484  A    between atoms: CB_836  and  CG_837
REMARK  485  A    between atoms: N_843  and  CA_844
REMARK  486  A    between atoms: CA_844  and  C_845
REMARK  487  A    between atoms: CA_844  and  CB_847
REMARK  488  A    between atoms: CB_847  and  CG_848
REMARK  489  A    between atoms: N_851  and  CA_852
REMARK  490  A    between atoms: CA_852  and  C_853
REMARK  491  A    between atoms: CA_852  and  CB_855
REMARK  492  A    between atoms: CB_855  and  CG_856
REMARK  493  A    between atoms: CG_856  and  CD_857
REMARK  494  A    between atoms: N_860  and  CA_861
REMARK  495  A    between atoms: CA_861  and  C_862
REMARK  496  A    between atoms: CA_861  and  CB_864
REMARK  497  A    between atoms: CB_864  and  CG_865
REMARK  498  A    between atoms: CG_865  and  CD_866
REMARK  499  A    between atoms: N_869  and  CA_870
REMARK  500  A    between atoms: CA_870  and  C_871
REMARK  501  A    between atoms: CA_870  and  CB_873
REMARK  502  A    between atoms: CB_873  and  CG_874
REMARK  503  A    between atoms: CG_874  and  CD_875
REMARK  504  A    between atoms: CD_875  and  NE_876
REMARK  505  A    between atoms: N_880  and  CA_881
REMARK  506  A    between atoms: CA_881  and  C_882
REMARK  507  A    between atoms: CA_881  and  CB_884
REMARK  508  A    between atoms: CB_884  and  OG1_885
REMARK  509  A    between atoms: CB_884  and  CG2_886
REMARK  510  A    between atoms: N_887  and  CA_888
REMARK  511  A    between atoms: CA_888  and  C_889
REMARK  512  A    between atoms: CA_888  and  CB_891
REMARK  513  A    between atoms: N_892  and  CA_893
REMARK  514  A    between atoms: CA_893  and  C_894
REMARK  515  A    between atoms: CA_893  and  CB_896
REMARK  516  A    between atoms: CB_896  and  OG1_897
REMARK  517  A    between atoms: CB_896  and  CG2_898
REMARK  518  A    between atoms: N_899  and  CA_900
REMARK  519  A    between atoms: CA_900  and  C_901
REMARK  520  A    between atoms: CA_900  and  CB_903
REMARK  521  A    between atoms: CB_903  and  CG_904
REMARK  522  A    between atoms: CZ_909  and  OH_910
REMARK  523  A    between atoms: N_911  and  CA_912
REMARK  524  A    between atoms: CA_912  and  C_913
REMARK  525  A    between atoms: CA_912  and  CB_915
REMARK  526  A    between atoms: CB_915  and  CG1_916
REMARK  527  A    between atoms: CB_915  and  CG2_917
REMARK  528  A    between atoms: CG1_916  and  CD1_918
REMARK  529  A    between atoms: N_919  and  CA_920
REMARK  530  A    between atoms: CA_920  and  C_921
REMARK  531  A    between atoms: CA_920  and  CB_923
REMARK  532  A    between atoms: CB_923  and  OG1_924
REMARK  533  A    between atoms: CB_923  and  CG2_925
REMARK  534  A    between atoms: N_926  and  CA_927
REMARK  535  A    between atoms: CA_927  and  C_928
REMARK  536  A    between atoms: CA_927  and  CB_930
REMARK  537  A    between atoms: CB_930  and  CG_931
REMARK  538  A    between atoms: CG_931  and  CD_932
REMARK  539  A    between atoms: N_935  and  CA_936
REMARK  540  A    between atoms: CA_936  and  C_937
REMARK  541  A    between atoms: CA_936  and  CB_939
REMARK  542  A    between atoms: CB_939  and  CG_940
REMARK  543  A    between atoms: CG_940  and  CD2_941
REMARK  544  A    between atoms: CG_940  and  CD1_942
REMARK  545  A    between atoms: N_943  and  CA_944
REMARK  546  A    between atoms: CA_944  and  C_945
REMARK  547  A    between atoms: CA_944  and  CB_947
REMARK  548  A    between atoms: N_948  and  CA_949
REMARK  549  A    between atoms: CA_949  and  C_950
REMARK  550  A    between atoms: CA_949  and  CB_952
REMARK  551  A    between atoms: CB_952  and  CG_953
REMARK  552  A    between atoms: N_956  and  CA_957
REMARK  553  A    between atoms: CA_957  and  C_958
REMARK  554  A    between atoms: CA_957  and  CB_960
REMARK  555  A    between atoms: N_961  and  CA_962
REMARK  556  A    between atoms: CA_962  and  C_963
REMARK  557  A    between atoms: CA_962  and  CB_965
REMARK  558  A    between atoms: CB_965  and  CG_966
REMARK  559  A    between atoms: CG_966  and  CD2_967
REMARK  560  A    between atoms: CG_966  and  CD1_968
REMARK  561  A    between atoms: N_969  and  CA_970
REMARK  562  A    between atoms: CA_970  and  C_971
REMARK  563  A    between atoms: CA_970  and  CB_973
REMARK  564  A    between atoms: CB_973  and  OG_974
REMARK  565  A    between atoms: N_975  and  CA_976
REMARK  566  A    between atoms: CA_976  and  C_977
REMARK  567  A    between atoms: CA_976  and  CB_979
REMARK  568  A    between atoms: CB_979  and  CG_980
REMARK  569  A    between atoms: CZ_985  and  OH_986
REMARK  570  A    between atoms: N_987  and  CA_988
REMARK  571  A    between atoms: CA_988  and  C_989
REMARK  572  A    between atoms: CA_988  and  CB_991
REMARK  573  A    between atoms: CB_991  and  SG_992
REMARK  574  A    between atoms: N_993  and  CA_994
REMARK  575  A    between atoms: CA_994  and  C_995
REMARK  576  A    between atoms: CA_994  and  CB_997
REMARK  577  A    between atoms: CB_997  and  CG_998
REMARK  578  A    between atoms: N_1003  and  C_1004
REMARK  579  A    between atoms: C_1004  and  C_1005
REMARK  580  A    between atoms: C_1004  and  C_1007
REMARK  581  A    between atoms: C_1007  and  O_1008
REMARK  582  A    between atoms: N_1009  and  C_1010
REMARK  583  A    between atoms: C_1010  and  C_1011
REMARK  584  A    between atoms: C_1010  and  C_1013
REMARK  585  A    between atoms: C_1013  and  C_1014
REMARK  586  A    between atoms: C_1014  and  C_1015
REMARK  587  A    between atoms: C_1015  and  C_1016
REMARK  588  A    between atoms: C_1016  and  N_1017
REMARK  589  A    between atoms: N_1018  and  C_1019
REMARK  590  A    between atoms: C_1020  and  C_1021
REMARK  591  A    between atoms: C_1020  and  C_1024
REMARK  592  A    between atoms: C_1023  and  C_1026
REMARK  593  A    between atoms: C_1025  and  C_1026
REMARK  594  A    between atoms: C_1027  and  N_1029
REMARK  595  A    between atoms: C_1028  and  N_1030
REMARK  596  A    between atoms: N_1037  and  C_1038
REMARK  597  A    between atoms: C_1038  and  C_1039
REMARK  598  A    between atoms: C_1038  and  C_1041
REMARK  599  A    between atoms: C_1041  and  C_1042
REMARK  600  A    between atoms: C_1041  and  C_1043
REMARK  601  A    between atoms: N_1044  and  C_1045
REMARK  602  A    between atoms: C_1045  and  C_1046
REMARK  603  A    between atoms: C_1045  and  C_1048
REMARK  604  A    between atoms: C_1048  and  C_1049
REMARK  605  A    between atoms: C_1048  and  C_1050
REMARK  606  A    between atoms: C_1049  and  C_1051
REMARK  607  A    between atoms: N_1052  and  C_1053
REMARK  608  A    between atoms: C_1053  and  C_1054
REMARK  609  A    between atoms: C_1053  and  C_1056
REMARK  610  A    between atoms: C_1056  and  C_1057
REMARK  611  A    between atoms: N_1062  and  C_1063
REMARK  612  A    between atoms: C_1063  and  C_1064
REMARK  613  A    between atoms: C_1063  and  C_1066
REMARK  614  A    between atoms: C_1066  and  C_1067
REMARK  615  A    between atoms: C_1067  and  C_1068
REMARK  616  A    between atoms: C_1068  and  N_1069
REMARK  617  A    between atoms: N_1073  and  C_1074
REMARK  618  A    between atoms: C_1074  and  C_1077
REMARK  619  A    between atoms: C_1077  and  C_1078
REMARK  620  A    between atoms: N_1081  and  C_1084
REMARK  621  A    between atoms: C_1083  and  C_1085
REMARK  622  A    between atoms: C_1085  and  C_1086
REMARK  623  A    between atoms: C_1085  and  O_1087
REMARK  624  A    between atoms: C_1085  and  N_1097
REMARK  625  A    between atoms: C_1089  and  C_1094
REMARK  626  A    between atoms: C_1090  and  C_1091
REMARK  627  A    between atoms: C_1093  and  C_1094
REMARK  628  A    between atoms: C_1098  and  C_1099
REMARK  629  A    between atoms: C_1098  and  C_1101
REMARK  630  A    between atoms: C_1101  and  C_1102
REMARK  631  A    between atoms: C_1102  and  C_1103
REMARK  632  A    between atoms: C_1103  and  C_1104
REMARK  633  A    between atoms: C_1104  and  N_1105
REMARK  634  A    between atoms: C_1107  and  C_1108
REMARK  635  A    between atoms: N_1113  and  CA_1114
REMARK  636  A    between atoms: CA_1114  and  C_1115
REMARK  637  A    between atoms: CA_1114  and  CB_1117
REMARK  638  A    between atoms: CB_1117  and  CG_1118
REMARK  639  A    between atoms: CG_1118  and  CD_1119
REMARK  640  A    between atoms: N_1122  and  CA_1123
REMARK  641  A    between atoms: CA_1123  and  C_1124
REMARK  642  A    between atoms: CA_1123  and  CB_1126
REMARK  643  A    between atoms: CB_1126  and  CG_1127
REMARK  644  A    between atoms: N_1130  and  CA_1131
REMARK  645  A    between atoms: CA_1131  and  C_1132
REMARK  646  A    between atoms: CA_1131  and  CB_1134
REMARK  647  A    between atoms: CB_1134  and  CG_1135
REMARK  648  A    between atoms: CG_1135  and  CD2_1136
REMARK  649  A    between atoms: CG_1135  and  CD1_1137
REMARK  650  A    between atoms: N_1138  and  CA_1139
REMARK  651  A    between atoms: CA_1139  and  C_1140
REMARK  652  A    between atoms: CA_1139  and  CB_1142
REMARK  653  A    between atoms: CB_1142  and  CG_1143
REMARK  654  A    between atoms: CG_1143  and  CD1_1144
REMARK  655  A    between atoms: CG_1143  and  CD2_1145
REMARK  656  A    between atoms: N_1146  and  CA_1147
REMARK  657  A    between atoms: CA_1147  and  C_1148
REMARK  658  A    between atoms: CA_1147  and  CB_1150
REMARK  659  A    between atoms: CB_1150  and  CG_1151
REMARK  660  A    between atoms: CG_1151  and  CD2_1152
REMARK  661  A    between atoms: CG_1151  and  CD1_1153
REMARK  662  A    between atoms: N_1154  and  CA_1155
REMARK  663  A    between atoms: CA_1155  and  C_1156
REMARK  664  A    between atoms: N_1158  and  CA_1159
REMARK  665  A    between atoms: CA_1159  and  C_1160
REMARK  666  A    between atoms: CA_1159  and  CB_1162
REMARK  667  A    between atoms: CB_1162  and  OG_1163
REMARK  668  A    between atoms: N_1164  and  CA_1165
REMARK  669  A    between atoms: CA_1165  and  C_1166
REMARK  670  A    between atoms: CA_1165  and  CB_1168
REMARK  671  A    between atoms: N_1169  and  CA_1170
REMARK  672  A    between atoms: CA_1170  and  C_1171
REMARK  673  A    between atoms: N_1173  and  CA_1174
REMARK  674  A    between atoms: CA_1174  and  C_1175
REMARK  675  A    between atoms: CA_1174  and  CB_1177
REMARK  676  A    between atoms: CB_1177  and  CG_1178
REMARK  677  A    between atoms: CG_1178  and  CD_1179
REMARK  678  A    between atoms: N_1182  and  CA_1183
REMARK  679  A    between atoms: CA_1183  and  C_1184
REMARK  680  A    between atoms: CA_1183  and  CB_1186
REMARK  681  A    between atoms: CB_1186  and  CG_1187
REMARK  682  A    between atoms: CG_1187  and  CD2_1188
REMARK  683  A    between atoms: CG_1187  and  CD1_1189
REMARK  684  A    between atoms: N_1190  and  CA_1191
REMARK  685  A    between atoms: CA_1191  and  C_1192
REMARK  686  A    between atoms: CA_1191  and  CB_1194
REMARK  687  A    between atoms: CB_1194  and  CG_1195
REMARK  688  A    between atoms: CG_1195  and  CD_1196
REMARK  689  A    between atoms: CD_1196  and  CE_1197
REMARK  690  A    between atoms: CE_1197  and  NZ_1198
REMARK  691  A    between atoms: N_1199  and  CA_1200
REMARK  692  A    between atoms: CA_1200  and  C_1201
REMARK  693  A    between atoms: CA_1200  and  CB_1203
REMARK  694  A    between atoms: CB_1203  and  CG1_1204
REMARK  695  A    between atoms: CB_1203  and  CG2_1205
REMARK  696  A    between atoms: CG1_1204  and  CD1_1206
REMARK  697  A    between atoms: N_1207  and  CA_1208
REMARK  698  A    between atoms: CA_1208  and  C_1209
REMARK  699  A    between atoms: CA_1208  and  CB_1211
REMARK  700  A    between atoms: N_1212  and  CA_1213
REMARK  701  A    between atoms: CA_1213  and  C_1214
REMARK  702  A    between atoms: CA_1213  and  CB_1216
REMARK  703  A    between atoms: CB_1216  and  CG_1217
REMARK  704  A    between atoms: N_1220  and  CA_1221
REMARK  705  A    between atoms: CA_1221  and  C_1222
REMARK  706  A    between atoms: CA_1221  and  CB_1224
REMARK  707  A    between atoms: CB_1224  and  CG_1225
REMARK  708  A    between atoms: N_1231  and  CA_1232
REMARK  709  A    between atoms: CA_1232  and  C_1233
REMARK  710  A    between atoms: N_1235  and  CA_1236
REMARK  711  A    between atoms: CA_1236  and  C_1237
REMARK  712  A    between atoms: CA_1236  and  CB_1239
REMARK  713  A    between atoms: CB_1239  and  CG_1240
REMARK  714  A    between atoms: N_1249  and  CA_1250
REMARK  715  A    between atoms: CA_1250  and  C_1251
REMARK  716  A    between atoms: CA_1250  and  CB_1253
REMARK  717  A    between atoms: CB_1253  and  OG_1254
REMARK  718  A    between atoms: N_1255  and  CA_1256
REMARK  719  A    between atoms: CA_1256  and  C_1257
REMARK  720  A    between atoms: CA_1256  and  CB_1259
REMARK  721  A    between atoms: CB_1259  and  CG2_1260
REMARK  722  A    between atoms: CB_1259  and  CG1_1261
REMARK  723  A    between atoms: N_1262  and  CA_1263
REMARK  724  A    between atoms: CA_1263  and  C_1264
REMARK  725  A    between atoms: CA_1263  and  CB_1266
REMARK  726  A    between atoms: CB_1266  and  CG_1267
REMARK  727  A    between atoms: N_1272  and  CA_1273
REMARK  728  A    between atoms: CA_1273  and  C_1274
REMARK  729  A    between atoms: CA_1273  and  CB_1276
REMARK  730  A    between atoms: CA_1278  and  C_1279
REMARK  731  A    between atoms: N_1284  and  CA_1285
REMARK  732  A    between atoms: CA_1285  and  C_1286
REMARK  733  A    between atoms: CA_1285  and  CB_1288
REMARK  734  A    between atoms: CB_1288  and  OG_1289
REMARK  735  A    between atoms: N_1290  and  CA_1291
REMARK  736  A    between atoms: CA_1291  and  C_1292
REMARK  737  A    between atoms: CA_1291  and  CB_1294
REMARK  738  A    between atoms: CB_1294  and  OG_1295
REMARK  739  A    between atoms: N_1296  and  C_1297
REMARK  740  A    between atoms: C_1297  and  C_1298
REMARK  741  A    between atoms: C_1297  and  C_1300
REMARK  742  A    between atoms: C_1300  and  C_1301
REMARK  743  A    between atoms: C_1301  and  C_1302
REMARK  744  A    between atoms: N_1303  and  CA_1304
REMARK  745  A    between atoms: CA_1304  and  C_1305
REMARK  746  A    between atoms: CA_1304  and  CB_1307
REMARK  747  A    between atoms: CB_1307  and  CG_1308
REMARK  748  A    between atoms: CG_1308  and  CD_1309
REMARK  749  A    between atoms: CD_1309  and  NE_1310
REMARK  750  A    between atoms: N_1314  and  CA_1315
REMARK  751  A    between atoms: CA_1315  and  C_1316
REMARK  752  A    between atoms: CA_1315  and  CB_1318
REMARK  753  A    between atoms: CB_1318  and  OG1_1319
REMARK  754  A    between atoms: CB_1318  and  CG2_1320
REMARK  755  A    between atoms: N_1321  and  C_1322
REMARK  756  A    between atoms: C_1322  and  C_1323
REMARK  757  A    between atoms: C_1322  and  C_1325
REMARK  758  A    between atoms: C_1325  and  C_1326
REMARK  759  A    between atoms: C_1326  and  C_1327
REMARK  760  A    between atoms: C_1326  and  C_1328
REMARK  761  A    between atoms: N_1329  and  C_1330
REMARK  762  A    between atoms: C_1330  and  C_1331
REMARK  763  A    between atoms: C_1330  and  C_1333
REMARK  764  A    between atoms: N_1334  and  C_1335
REMARK  765  A    between atoms: C_1335  and  C_1336
REMARK  766  A    between atoms: N_1338  and  C_1339
REMARK  767  A    between atoms: C_1339  and  C_1340
REMARK  768  A    between atoms: C_1339  and  C_1342
REMARK  769  A    between atoms: C_1342  and  O_1343
REMARK  770  A    between atoms: C_1342  and  C_1344
REMARK  771  A    between atoms: N_1345  and  C_1346
REMARK  772  A    between atoms: C_1346  and  C_1347
REMARK  773  A    between atoms: C_1346  and  C_1349
REMARK  774  A    between atoms: C_1349  and  C_1350
REMARK  775  A    between atoms: C_1350  and  C_1351
REMARK  776  A    between atoms: C_1350  and  C_1352
REMARK  777  A    between atoms: N_1353  and  C_1354
REMARK  778  A    between atoms: C_1354  and  C_1355
REMARK  779  A    between atoms: C_1354  and  C_1357
REMARK  780  A    between atoms: C_1357  and  C_1358
REMARK  781  A    between atoms: N_1361  and  C_1362
REMARK  782  A    between atoms: C_1362  and  C_1363
REMARK  783  A    between atoms: C_1362  and  C_1365
REMARK  784  A    between atoms: C_1365  and  C_1366
REMARK  785  A    between atoms: C_1371  and  O_1372
REMARK  786  A    between atoms: N_1373  and  C_1374
REMARK  787  A    between atoms: C_1374  and  C_1375
REMARK  788  A    between atoms: C_1374  and  C_1377
REMARK  789  A    between atoms: C_1377  and  C_1378
REMARK  790  A    between atoms: C_1378  and  C_1379
REMARK  791  A    between atoms: C_1378  and  C_1380
REMARK  792  A    between atoms: C_1382  and  C_1383
REMARK  793  A    between atoms: C_1389  and  C_1390
REMARK  794  A    between atoms: N_1395  and  C_1396
REMARK  795  A    between atoms: C_1396  and  C_1399
REMARK  796  A    between atoms: C_1399  and  C_1400
REMARK  797  A    between atoms: C_1400  and  C_1401
REMARK  798  A    between atoms: N_1405  and  C_1406
REMARK  799  A    between atoms: C_1407  and  C_1412
REMARK  800  A    between atoms: C_1408  and  O_1410
REMARK  801  A    between atoms: C_1409  and  O_1411
REMARK  802  A    between atoms: O_1410  and  O_1411
REMARK  803  A    between atoms: C_1412  and  C_1414
REMARK  804  A    between atoms: C_1413  and  C_1415
REMARK  805  A    between atoms: S_1416  and  C_1418
REMARK  806  A    between atoms: S_1417  and  C_1419
REMARK  807  A    between atoms: C_1418  and  C_1419
REMARK  808  A    between atoms: N_1420  and  CA_1421
REMARK  809  A    between atoms: CA_1421  and  C_1422
REMARK  810  A    between atoms: CA_1421  and  CB_1424
REMARK  811  A    between atoms: CB_1424  and  CG1_1425
REMARK  812  A    between atoms: CB_1424  and  CG2_1426
REMARK  813  A    between atoms: CG1_1425  and  CD1_1427
REMARK  814  A    between atoms: N_1428  and  CA_1429
REMARK  815  A    between atoms: CA_1429  and  C_1430
REMARK  816  A    between atoms: CA_1429  and  CB_1432
REMARK  817  A    between atoms: CB_1432  and  CG_1433
REMARK  818  A    between atoms: CG_1433  and  CD_1434
REMARK  819  A    between atoms: N_1437  and  CA_1438
REMARK  820  A    between atoms: CA_1438  and  C_1439
REMARK  821  A    between atoms: N_1441  and  CA_1442
REMARK  822  A    between atoms: CA_1442  and  C_1443
REMARK  823  A    between atoms: CA_1442  and  CB_1445
REMARK  824  A    between atoms: CB_1445  and  CG_1446
REMARK  825  A    between atoms: CG_1446  and  CD_1447
REMARK  826  A    between atoms: CD_1447  and  NE_1448
REMARK  827  A    between atoms: N_1452  and  C_1453
REMARK  828  A    between atoms: C_1453  and  C_1454
REMARK  829  A    between atoms: C_1453  and  C_1456
REMARK  830  A    between atoms: C_1456  and  C_1457
REMARK  831  A    between atoms: C_1457  and  S_1458
REMARK  832  A    between atoms: N_1459  and  CA_1460
REMARK  833  A    between atoms: CA_1460  and  C_1461
REMARK  834  A    between atoms: CA_1460  and  CB_1463
REMARK  835  A    between atoms: CB_1463  and  CG_1464
REMARK  836  A    between atoms: N_1469  and  CA_1470
REMARK  837  A    between atoms: CA_1470  and  C_1471
REMARK  838  A    between atoms: CA_1470  and  CB_1473
REMARK  839  A    between atoms: CB_1473  and  CG_1474
REMARK  840  A    between atoms: N_1477  and  CA_1478
REMARK  841  A    between atoms: CA_1478  and  C_1479
REMARK  842  A    between atoms: CA_1478  and  CB_1481
REMARK  843  A    between atoms: CB_1481  and  CG_1482
REMARK  844  A    between atoms: CG_1482  and  CD_1483
REMARK  845  A    between atoms: N_1486  and  CA_1487
REMARK  846  A    between atoms: CA_1487  and  C_1488
REMARK  847  A    between atoms: CA_1487  and  CB_1490
REMARK  848  A    between atoms: CB_1490  and  CG_1491
REMARK  849  A    between atoms: CG_1491  and  CD_1492
REMARK  850  A    between atoms: CD_1492  and  CE_1493
REMARK  851  A    between atoms: CE_1493  and  NZ_1494
REMARK  852  A    between atoms: N_1495  and  CA_1496
REMARK  853  A    between atoms: CA_1496  and  C_1497
REMARK  854  A    between atoms: CA_1496  and  CB_1499
REMARK  855  A    between atoms: CB_1499  and  CG2_1500
REMARK  856  A    between atoms: CB_1499  and  CG1_1501
REMARK  857  A    between atoms: N_1502  and  CA_1503
REMARK  858  A    between atoms: CA_1503  and  C_1504
REMARK  859  A    between atoms: CA_1503  and  CB_1506
REMARK  860  A    between atoms: CB_1506  and  CG_1507
REMARK  861  A    between atoms: N_1510  and  CA_1511
REMARK  862  A    between atoms: CA_1511  and  C_1512
REMARK  863  A    between atoms: CA_1511  and  CB_1514
REMARK  864  A    between atoms: CB_1514  and  CG_1515
REMARK  865  A    between atoms: CG_1515  and  CD2_1516
REMARK  866  A    between atoms: CG_1515  and  CD1_1517
REMARK  867  A    between atoms: N_1518  and  CA_1519
REMARK  868  A    between atoms: CA_1519  and  C_1520
REMARK  869  A    between atoms: CA_1519  and  CB_1522
REMARK  870  A    between atoms: CB_1522  and  CG_1523
REMARK  871  A    between atoms: N_1532  and  CA_1533
REMARK  872  A    between atoms: CA_1533  and  C_1534
REMARK  873  A    between atoms: CA_1533  and  CB_1536
REMARK  874  A    between atoms: CB_1536  and  OG_1537
REMARK  875  A    between atoms: N_1538  and  CA_1539
REMARK  876  A    between atoms: CA_1539  and  C_1540
REMARK  877  A    between atoms: CA_1539  and  CB_1542
REMARK  878  A    between atoms: CB_1542  and  CG_1543
REMARK  879  A    between atoms: CG_1543  and  CD2_1544
REMARK  880  A    between atoms: CG_1543  and  CD1_1545
REMARK  881  A    between atoms: N_1546  and  CA_1547
REMARK  882  A    between atoms: CA_1547  and  C_1548
REMARK  883  A    between atoms: N_1550  and  CA_1551
REMARK  884  A    between atoms: CA_1551  and  C_1552
REMARK  885  A    between atoms: CA_1551  and  CB_1554
REMARK  886  A    between atoms: CB_1554  and  CG2_1555
REMARK  887  A    between atoms: CB_1554  and  CG1_1556
REMARK  888  A    between atoms: N_1557  and  CA_1558
REMARK  889  A    between atoms: CA_1558  and  C_1559
REMARK  890  A    between atoms: CA_1558  and  CB_1561
REMARK  891  A    between atoms: CB_1561  and  CG_1562
REMARK  892  A    between atoms: CG_1562  and  CD1_1563
REMARK  893  A    between atoms: CG_1562  and  CD2_1564
REMARK  894  A    between atoms: N_1565  and  CA_1566
REMARK  895  A    between atoms: CA_1566  and  C_1567
REMARK  896  A    between atoms: CA_1566  and  CB_1569
REMARK  897  A    between atoms: CB_1569  and  SG_1570
REMARK  898  A    between atoms: N_1571  and  CA_1572
REMARK  899  A    between atoms: CA_1572  and  C_1573
REMARK  900  A    between atoms: CA_1572  and  CB_1575
REMARK  901  A    between atoms: CB_1575  and  CG_1576
REMARK  902  A    between atoms: CZ_1581  and  OH_1582
REMARK  903  A    between atoms: N_1583  and  CA_1584
REMARK  904  A    between atoms: CA_1584  and  C_1585
REMARK  905  A    between atoms: CA_1584  and  CB_1587
REMARK  906  A    between atoms: CB_1587  and  CG_1588
REMARK  907  A    between atoms: CG_1588  and  CD_1589
REMARK  908  A    between atoms: N_1592  and  CA_1593
REMARK  909  A    between atoms: CA_1593  and  C_1594
REMARK  910  A    between atoms: CA_1593  and  CB_1596
REMARK  911  A    between atoms: CB_1596  and  CG_1597
REMARK  912  A    between atoms: N_1603  and  CA_1604
REMARK  913  A    between atoms: CA_1604  and  C_1605
REMARK  914  A    between atoms: CA_1604  and  CB_1607
REMARK  915  A    between atoms: CB_1607  and  CG_1608
REMARK  916  A    between atoms: CG_1608  and  CD1_1609
REMARK  917  A    between atoms: CG_1608  and  CD2_1610
REMARK  918  A    between atoms: N_1611  and  CA_1612
REMARK  919  A    between atoms: CA_1612  and  C_1613
REMARK  920  A    between atoms: CA_1612  and  CB_1615
REMARK  921  A    between atoms: CB_1615  and  CG2_1616
REMARK  922  A    between atoms: CB_1615  and  CG1_1617
REMARK  923  A    between atoms: N_1618  and  CA_1619
REMARK  924  A    between atoms: CA_1619  and  C_1620
REMARK  925  A    between atoms: N_1622  and  C_1623
REMARK  926  A    between atoms: C_1623  and  C_1624
REMARK  927  A    between atoms: C_1623  and  C_1626
REMARK  928  A    between atoms: C_1626  and  C_1627
REMARK  929  A    between atoms: C_1627  and  C_1628
REMARK  930  A    between atoms: CA_1630  and  C_1631
REMARK  931  A    between atoms: CA_1637  and  C_1638
REMARK  932  A    between atoms: N_1643  and  CA_1644
REMARK  933  A    between atoms: CA_1644  and  C_1645
REMARK  934  A    between atoms: CA_1644  and  CB_1647
REMARK  935  A    between atoms: CB_1647  and  CG_1648
REMARK  936  A    between atoms: N_1654  and  CA_1655
REMARK  937  A    between atoms: CA_1655  and  C_1656
REMARK  938  A    between atoms: CA_1655  and  CB_1658
REMARK  939  A    between atoms: CB_1658  and  CG_1659
REMARK  940  A    between atoms: CG_1659  and  CD_1660
REMARK  941  A    between atoms: N_1663  and  CA_1664
REMARK  942  A    between atoms: CA_1664  and  C_1665
REMARK  943  A    between atoms: CA_1664  and  CB_1667
REMARK  944  A    between atoms: N_1668  and  CA_1669
REMARK  945  A    between atoms: CA_1669  and  C_1670
REMARK  946  A    between atoms: CA_1669  and  CB_1672
REMARK  947  A    between atoms: CB_1672  and  CG_1673
REMARK  948  A    between atoms: N_1676  and  CA_1677
REMARK  949  A    between atoms: CA_1677  and  C_1678
REMARK  950  A    between atoms: CA_1677  and  CB_1680
REMARK  951  A    between atoms: CB_1680  and  OG1_1681
REMARK  952  A    between atoms: CB_1680  and  CG2_1682
REMARK  953  A    between atoms: N_1683  and  CA_1684
REMARK  954  A    between atoms: CA_1684  and  C_1685
REMARK  955  A    between atoms: CA_1684  and  CB_1687
REMARK  956  A    between atoms: CB_1687  and  CG_1688
REMARK  957  A    between atoms: CZ_1693  and  OH_1694
REMARK  958  A    between atoms: N_1695  and  CA_1696
REMARK  959  A    between atoms: CA_1696  and  C_1697
REMARK  960  A    between atoms: CA_1696  and  CB_1699
REMARK  961  A    between atoms: CB_1699  and  CG_1700
REMARK  962  A    between atoms: CG_1700  and  CD_1701
REMARK  963  A    between atoms: N_1704  and  CA_1705
REMARK  964  A    between atoms: CA_1705  and  C_1706
REMARK  965  A    between atoms: CA_1705  and  CB_1708
REMARK  966  A    between atoms: CB_1708  and  CG_1709
REMARK  967  A    between atoms: CG_1709  and  CD_1710
REMARK  968  A    between atoms: N_1713  and  CA_1714
REMARK  969  A    between atoms: CA_1714  and  C_1715
REMARK  970  A    between atoms: CA_1714  and  CB_1717
REMARK  971  A    between atoms: CB_1717  and  OG1_1718
REMARK  972  A    between atoms: CB_1717  and  CG2_1719
REMARK  973  A    between atoms: N_1720  and  CA_1721
REMARK  974  A    between atoms: CA_1721  and  C_1722
REMARK  975  A    between atoms: CA_1721  and  CB_1724
REMARK  976  A    between atoms: CB_1724  and  CG_1725
REMARK  977  A    between atoms: CZ_1730  and  OH_1731
REMARK  978  A    between atoms: N_1732  and  CA_1733
REMARK  979  A    between atoms: CA_1733  and  C_1734
REMARK  980  A    between atoms: CA_1733  and  CB_1736
REMARK  981  A    between atoms: CB_1736  and  SG_1737
REMARK  982  A    between atoms: N_1738  and  C_1739
REMARK  983  A    between atoms: C_1739  and  C_1740
REMARK  984  A    between atoms: C_1739  and  C_1742
REMARK  985  A    between atoms: C_1742  and  C_1743
REMARK  986  A    between atoms: C_1743  and  C_1744
REMARK  987  A    between atoms: C_1744  and  N_1745
REMARK  988  A    between atoms: N_1746  and  CA_1747
REMARK  989  A    between atoms: CA_1747  and  C_1748
REMARK  990  A    between atoms: CA_1747  and  CB_1750
REMARK  991  A    between atoms: CB_1750  and  CG1_1751
REMARK  992  A    between atoms: CB_1750  and  CG2_1752
REMARK  993  A    between atoms: CG1_1751  and  CD1_1753
REMARK  994  A    between atoms: N_1754  and  C_1755
REMARK  995  A    between atoms: C_1755  and  C_1756
REMARK  996  A    between atoms: C_1755  and  C_1758
REMARK  997  A    between atoms: C_1758  and  O_1759
REMARK  998  A    between atoms: N_1760  and  C_1761
REMARK  999  A    between atoms: C_1761  and  C_1762
REMARK  1000  A    between atoms: C_1761  and  C_1764
REMARK  1001  A    between atoms: C_1764  and  C_1765
REMARK  1002  A    between atoms: C_1765  and  C_1766
REMARK  1003  A    between atoms: C_1766  and  N_1767
REMARK  1004  A    between atoms: N_1771  and  C_1772
REMARK  1005  A    between atoms: C_1772  and  C_1773
REMARK  1006  A    between atoms: C_1772  and  C_1775
REMARK  1007  A    between atoms: C_1775  and  C_1776
REMARK  1008  A    between atoms: C_1775  and  C_1777
REMARK  1009  A    between atoms: N_1778  and  C_1779
REMARK  1010  A    between atoms: C_1779  and  C_1780
REMARK  1011  A    between atoms: C_1779  and  C_1782
REMARK  1012  A    between atoms: C_1782  and  C_1783
REMARK  1013  A    between atoms: C_1783  and  C_1784
REMARK  1014  A    between atoms: N_1787  and  C_1788
REMARK  1015  A    between atoms: C_1788  and  C_1789
REMARK  1016  A    between atoms: C_1788  and  C_1791
REMARK  1017  A    between atoms: C_1791  and  C_1792
REMARK  1018  A    between atoms: N_1798  and  C_1799
REMARK  1019  A    between atoms: C_1799  and  C_1800
REMARK  1020  A    between atoms: C_1799  and  C_1802
REMARK  1021  A    between atoms: C_1802  and  O_1803
REMARK  1022  A    between atoms: C_1802  and  C_1804
REMARK  1023  A    between atoms: N_1805  and  C_1806
REMARK  1024  A    between atoms: C_1806  and  C_1807
REMARK  1025  A    between atoms: C_1806  and  C_1809
REMARK  1026  A    between atoms: C_1809  and  C_1810
REMARK  1027  A    between atoms: C_1817  and  C_1818
REMARK  1028  A    between atoms: N_1823  and  C_1824
REMARK  1029  A    between atoms: C_1824  and  C_1825
REMARK  1030  A    between atoms: C_1824  and  C_1827
REMARK  1031  A    between atoms: C_1827  and  C_1828
REMARK  1032  A    between atoms: N_1831  and  C_1832
REMARK  1033  A    between atoms: C_1832  and  C_1833
REMARK  1034  A    between atoms: C_1832  and  C_1835
REMARK  1035  A    between atoms: C_1835  and  C_1836
REMARK  1036  A    between atoms: N_1842  and  C_1843
REMARK  1037  A    between atoms: C_1843  and  C_1844
REMARK  1038  A    between atoms: C_1843  and  C_1846
REMARK  1039  A    between atoms: C_1846  and  C_1847
REMARK  1040  A    between atoms: C_1846  and  C_1848
REMARK  1041  A    between atoms: N_1849  and  C_1850
REMARK  1042  A    between atoms: C_1850  and  C_1851
REMARK  1043  A    between atoms: C_1850  and  C_1853
REMARK  1044  A    between atoms: C_1853  and  O_1854
REMARK  1045  A    between atoms: C_1853  and  C_1855
REMARK  1046  A    between atoms: N_1856  and  C_1857
REMARK  1047  A    between atoms: C_1858  and  C_1859
REMARK  1048  A    between atoms: C_1858  and  C_1861
REMARK  1049  A    between atoms: C_1862  and  C_1863
REMARK  1050  A    between atoms: C_1862  and  C_1864
REMARK  1051  A    between atoms: C_1863  and  C_1865
REMARK  1052  A    between atoms: N_1871  and  C_1872
REMARK  1053  A    between atoms: C_1872  and  C_1873
REMARK  1054  A    between atoms: N_1875  and  CA_1876
REMARK  1055  A    between atoms: CA_1876  and  C_1877
REMARK  1056  A    between atoms: CA_1876  and  CB_1879
REMARK  1057  A    between atoms: N_1880  and  CA_1881
REMARK  1058  A    between atoms: CA_1881  and  C_1882
REMARK  1059  A    between atoms: CA_1881  and  CB_1884
REMARK  1060  A    between atoms: CB_1884  and  CG_1885
REMARK  1061  A    between atoms: CG_1885  and  CD_1886
REMARK  1062  A    between atoms: CD_1886  and  NE_1887
REMARK  1063  A    between atoms: N_1891  and  CA_1892
REMARK  1064  A    between atoms: CA_1892  and  C_1893
REMARK  1065  A    between atoms: CA_1892  and  CB_1895
REMARK  1066  A    between atoms: CB_1895  and  CG_1896
REMARK  1067  A    between atoms: N_1899  and  CA_1900
REMARK  1068  A    between atoms: CA_1900  and  C_1901
REMARK  1069  A    between atoms: CA_1900  and  CB_1903
REMARK  1070  A    between atoms: CB_1903  and  CG_1904
REMARK  1071  A    between atoms: CG_1904  and  CD1_1905
REMARK  1072  A    between atoms: CG_1904  and  CD2_1906
REMARK  1073  A    between atoms: N_1907  and  CA_1908
REMARK  1074  A    between atoms: CA_1908  and  C_1909
REMARK  1075  A    between atoms: CA_1908  and  CB_1911
REMARK  1076  A    between atoms: CB_1911  and  CG1_1912
REMARK  1077  A    between atoms: CB_1911  and  CG2_1913
REMARK  1078  A    between atoms: CG1_1912  and  CD1_1914
REMARK  1079  A    between atoms: N_1915  and  CA_1916
REMARK  1080  A    between atoms: CA_1916  and  C_1917
REMARK  1081  A    between atoms: CA_1916  and  CB_1919
REMARK  1082  A    between atoms: CB_1919  and  OG_1920
REMARK  1083  A    between atoms: N_1921  and  CA_1922
REMARK  1084  A    between atoms: CA_1922  and  C_1923
REMARK  1085  A    between atoms: CA_1922  and  CB_1925
REMARK  1086  A    between atoms: CB_1925  and  CG_1926
REMARK  1087  A    between atoms: CG_1926  and  CD_1927
REMARK  1088  A    between atoms: CD_1927  and  NE_1928
REMARK  1089  A    between atoms: N_1932  and  CA_1933
REMARK  1090  A    between atoms: CA_1933  and  C_1934
REMARK  1091  A    between atoms: CA_1933  and  CB_1936
REMARK  1092  A    between atoms: CB_1936  and  CG_1937
REMARK  1093  A    between atoms: CG_1937  and  CD2_1938
REMARK  1094  A    between atoms: CG_1937  and  CD1_1939
REMARK  1095  A    between atoms: N_1940  and  CA_1941
REMARK  1096  A    between atoms: CA_1941  and  C_1942
REMARK  1097  A    between atoms: CA_1941  and  CB_1944
REMARK  1098  A    between atoms: CB_1944  and  CG_1945
REMARK  1099  A    between atoms: CG_1945  and  CD2_1946
REMARK  1100  A    between atoms: CG_1945  and  CD1_1947
REMARK  1101  A    between atoms: N_1948  and  CA_1949
REMARK  1102  A    between atoms: CA_1949  and  C_1950
REMARK  1103  A    between atoms: CA_1949  and  CB_1952
REMARK  1104  A    between atoms: CB_1952  and  CG_1953
REMARK  1105  A    between atoms: CG_1953  and  CD_1954
REMARK  1106  A    between atoms: CD_1954  and  CE_1955
REMARK  1107  A    between atoms: CE_1955  and  NZ_1956
REMARK  1108  A    between atoms: N_1957  and  CA_1958
REMARK  1109  A    between atoms: CA_1958  and  C_1959
REMARK  1110  A    between atoms: CA_1958  and  CB_1961
REMARK  1111  A    between atoms: CB_1961  and  CG_1962
REMARK  1112  A    between atoms: N_1967  and  CA_1968
REMARK  1113  A    between atoms: CA_1968  and  C_1969
REMARK  1114  A    between atoms: CA_1968  and  CB_1971
REMARK  1115  A    between atoms: CB_1971  and  CG_1972
REMARK  1116  A    between atoms: CA_1976  and  C_1977
REMARK  1117  A    between atoms: N_1982  and  C_1983
REMARK  1118  A    between atoms: C_1983  and  C_1984
REMARK  1119  A    between atoms: C_1983  and  C_1986
REMARK  1120  A    between atoms: C_1986  and  O_1987
REMARK  1121  A    between atoms: N_1988  and  C_1989
REMARK  1122  A    between atoms: C_1989  and  C_1990
REMARK  1123  A    between atoms: C_1989  and  C_1992
REMARK  1124  A    between atoms: C_1992  and  C_1993
REMARK  1125  A    between atoms: C_1993  and  C_1994
REMARK  1126  A    between atoms: N_1997  and  C_1998
REMARK  1127  A    between atoms: C_1998  and  C_1999
REMARK  1128  A    between atoms: C_1998  and  C_2001
REMARK  1129  A    between atoms: C_2001  and  C_2002
REMARK  1130  A    between atoms: C_2002  and  C_2003
REMARK  1131  A    between atoms: C_2003  and  N_2004
REMARK  1132  A    between atoms: C_2009  and  C_2010
REMARK  1133  A    between atoms: N_2015  and  C_2017
REMARK  1134  A    between atoms: C_2016  and  C_2018
REMARK  1135  A    between atoms: C_2016  and  C_2021
REMARK  1136  A    between atoms: C_2021  and  C_2022
REMARK  1137  A    between atoms: C_2022  and  C_2023
REMARK  1138  A    between atoms: C_2023  and  S_2024
REMARK  1139  A    between atoms: C_2023  and  S_2025
REMARK  1140  A    between atoms: S_2024  and  C_2026
REMARK  1141  A    between atoms: S_2025  and  C_2027
REMARK  1142  A    between atoms: N_2028  and  CA_2029
REMARK  1143  A    between atoms: CA_2029  and  C_2030
REMARK  1144  A    between atoms: CA_2029  and  CB_2032
REMARK  1145  A    between atoms: CB_2032  and  CG_2033
REMARK  1146  A    between atoms: CG_2033  and  CD1_2034
REMARK  1147  A    between atoms: CG_2033  and  CD2_2035
REMARK  1148  A    between atoms: N_2036  and  CA_2037
REMARK  1149  A    between atoms: CA_2037  and  C_2038
REMARK  1150  A    between atoms: CA_2037  and  CB_2040
REMARK  1151  A    between atoms: N_2041  and  CA_2042
REMARK  1152  A    between atoms: CA_2042  and  C_2043
REMARK  1153  A    between atoms: CA_2042  and  CB_2045
REMARK  1154  A    between atoms: CB_2045  and  CG_2046
REMARK  1155  A    between atoms: CG_2046  and  CD_2047
REMARK  1156  A    between atoms: N_2050  and  CA_2051
REMARK  1157  A    between atoms: CA_2051  and  C_2052
REMARK  1158  A    between atoms: CA_2051  and  CB_2054
REMARK  1159  A    between atoms: CB_2054  and  CG2_2055
REMARK  1160  A    between atoms: CB_2054  and  CG1_2056
REMARK  1161  A    between atoms: N_2057  and  CA_2058
REMARK  1162  A    between atoms: CA_2058  and  C_2059
REMARK  1163  A    between atoms: CA_2058  and  CB_2061
REMARK  1164  A    between atoms: CB_2061  and  CG_2062
REMARK  1165  A    between atoms: CG_2062  and  CD1_2063
REMARK  1166  A    between atoms: CG_2062  and  CD2_2064
REMARK  1167  A    between atoms: N_2065  and  CA_2066
REMARK  1168  A    between atoms: CA_2066  and  C_2067
REMARK  1169  A    between atoms: CA_2066  and  CB_2069
REMARK  1170  A    between atoms: CB_2069  and  CG_2070
REMARK  1171  A    between atoms: CG_2070  and  CD_2071
REMARK  1172  A    between atoms: N_2074  and  CA_2075
REMARK  1173  A    between atoms: CA_2075  and  C_2076
REMARK  1174  A    between atoms: CA_2075  and  CB_2078
REMARK  1175  A    between atoms: CB_2078  and  CG_2079
REMARK  1176  A    between atoms: CA_2085  and  C_2086
REMARK  1177  A    between atoms: N_2091  and  CA_2092
REMARK  1178  A    between atoms: CA_2092  and  C_2093
REMARK  1179  A    between atoms: CA_2092  and  CB_2095
REMARK  1180  A    between atoms: CB_2095  and  CG_2096
REMARK  1181  A    between atoms: N_2105  and  CA_2106
REMARK  1182  A    between atoms: CA_2106  and  C_2107
REMARK  1183  A    between atoms: CA_2106  and  CB_2109
REMARK  1184  A    between atoms: CB_2109  and  CG1_2110
REMARK  1185  A    between atoms: CB_2109  and  CG2_2111
REMARK  1186  A    between atoms: CG1_2110  and  CD1_2112
REMARK  1187  A    between atoms: N_2113  and  CA_2114
REMARK  1188  A    between atoms: CA_2114  and  C_2115
REMARK  1189  A    between atoms: CA_2114  and  CB_2117
REMARK  1190  A    between atoms: CB_2117  and  OG1_2118
REMARK  1191  A    between atoms: CB_2117  and  CG2_2119
REMARK  1192  A    between atoms: N_2120  and  CA_2121
REMARK  1193  A    between atoms: CA_2121  and  C_2122
REMARK  1194  A    between atoms: CA_2121  and  CB_2124
REMARK  1195  A    between atoms: N_2125  and  CA_2126
REMARK  1196  A    between atoms: CA_2126  and  C_2127
REMARK  1197  A    between atoms: CA_2126  and  CB_2129
REMARK  1198  A    between atoms: CB_2129  and  CG_2130
REMARK  1199  A    between atoms: N_2133  and  CA_2134
REMARK  1200  A    between atoms: CA_2134  and  C_2135
REMARK  1201  A    between atoms: CA_2134  and  CB_2137
REMARK  1202  A    between atoms: CB_2137  and  OG_2138
REMARK  1203  A    between atoms: N_2139  and  CA_2140
REMARK  1204  A    between atoms: CA_2140  and  C_2141
REMARK  1205  A    between atoms: CA_2140  and  CB_2143
REMARK  1206  A    between atoms: CB_2143  and  OG_2144
REMARK  1207  A    between atoms: N_2145  and  C_2146
REMARK  1208  A    between atoms: C_2146  and  C_2147
REMARK  1209  A    between atoms: C_2146  and  C_2149
REMARK  1210  A    between atoms: C_2149  and  C_2150
REMARK  1211  A    between atoms: N_2151  and  CA_2152
REMARK  1212  A    between atoms: CA_2152  and  C_2153
REMARK  1213  A    between atoms: CA_2152  and  CB_2155
REMARK  1214  A    between atoms: CB_2155  and  OG_2156
REMARK  1215  A    between atoms: N_2157  and  CA_2158
REMARK  1216  A    between atoms: CA_2158  and  C_2159
REMARK  1217  A    between atoms: CA_2158  and  CB_2161
REMARK  1218  A    between atoms: CB_2161  and  CG_2162
REMARK  1219  A    between atoms: CG_2162  and  CD_2163
REMARK  1220  A    between atoms: CA_2167  and  C_2168
REMARK  1221  A    between atoms: CA_2174  and  C_2175
REMARK  1222  A    between atoms: N_2180  and  CA_2181
REMARK  1223  A    between atoms: CA_2181  and  C_2182
REMARK  1224  A    between atoms: CA_2181  and  CB_2184
REMARK  1225  A    between atoms: CB_2184  and  OG_2185
REMARK  1226  A    between atoms: N_2186  and  CA_2187
REMARK  1227  A    between atoms: CA_2187  and  C_2188
REMARK  1228  A    between atoms: CA_2187  and  CB_2190
REMARK  1229  A    between atoms: CB_2190  and  CG_2191
REMARK  1230  A    between atoms: N_2200  and  CA_2201
REMARK  1231  A    between atoms: CA_2201  and  C_2202
REMARK  1232  A    between atoms: CA_2201  and  CB_2204
REMARK  1233  A    between atoms: CB_2204  and  CG2_2205
REMARK  1234  A    between atoms: CB_2204  and  CG1_2206
REMARK  1235  A    between atoms: N_2207  and  CA_2208
REMARK  1236  A    between atoms: CA_2208  and  C_2209
REMARK  1237  A    between atoms: CA_2208  and  CB_2211
REMARK  1238  A    between atoms: CB_2211  and  OG1_2212
REMARK  1239  A    between atoms: CB_2211  and  CG2_2213
REMARK  1240  A    between atoms: N_2214  and  CA_2215
REMARK  1241  A    between atoms: CA_2215  and  C_2216
REMARK  1242  A    between atoms: CA_2215  and  CB_2218
REMARK  1243  A    between atoms: CB_2218  and  CG_2219
REMARK  1244  A    between atoms: CG_2219  and  CD_2220
REMARK  1245  A    between atoms: N_2223  and  CA_2224
REMARK  1246  A    between atoms: CA_2224  and  C_2225
REMARK  1247  A    between atoms: CA_2224  and  CB_2227
REMARK  1248  A    between atoms: CB_2227  and  CG_2228
REMARK  1249  A    between atoms: CG_2228  and  SD_2229
REMARK  1250  A    between atoms: SD_2229  and  CE_2230
REMARK  1251  A    between atoms: N_2231  and  CA_2232
REMARK  1252  A    between atoms: CA_2232  and  C_2233
REMARK  1253  A    between atoms: CA_2232  and  CB_2235
REMARK  1254  A    between atoms: CB_2235  and  CG_2236
REMARK  1255  A    between atoms: CG_2236  and  CD1_2237
REMARK  1256  A    between atoms: CG_2236  and  CD2_2238
REMARK  1257  A    between atoms: N_2239  and  CA_2240
REMARK  1258  A    between atoms: CA_2240  and  C_2241
REMARK  1259  A    between atoms: CA_2240  and  CB_2243
REMARK  1260  A    between atoms: CB_2243  and  CG_2244
REMARK  1261  A    between atoms: CG_2244  and  CD1_2245
REMARK  1262  A    between atoms: CG_2244  and  CD2_2246
REMARK  1263  A    between atoms: N_2247  and  CA_2248
REMARK  1264  A    between atoms: CA_2248  and  C_2249
REMARK  1265  A    between atoms: CA_2248  and  CB_2251
REMARK  1266  A    between atoms: CB_2251  and  CG_2252
REMARK  1267  A    between atoms: CG_2252  and  CD_2253
REMARK  1268  A    between atoms: N_2256  and  CA_2257
REMARK  1269  A    between atoms: CA_2257  and  C_2258
REMARK  1270  A    between atoms: CA_2257  and  CB_2260
REMARK  1271  A    between atoms: CB_2260  and  CG_2261
REMARK  1272  A    between atoms: CG_2261  and  CD_2262
REMARK  1273  A    between atoms: CD_2262  and  CE_2263
REMARK  1274  A    between atoms: CE_2263  and  NZ_2264
REMARK  1275  A    between atoms: N_2265  and  C_2266
REMARK  1276  A    between atoms: C_2266  and  C_2267
REMARK  1277  A    between atoms: C_2266  and  C_2269
REMARK  1278  A    between atoms: C_2269  and  C_2270
REMARK  1279  A    between atoms: N_2271  and  CA_2272
REMARK  1280  A    between atoms: CA_2272  and  C_2273
REMARK  1281  A    between atoms: CA_2272  and  CB_2275
REMARK  1282  A    between atoms: CB_2275  and  CG_2276
REMARK  1283  A    between atoms: CG_2276  and  CD2_2277
REMARK  1284  A    between atoms: CG_2276  and  CD1_2278
REMARK  1285  A    between atoms: N_2279  and  CA_2280
REMARK  1286  A    between atoms: CA_2280  and  C_2281
REMARK  1287  A    between atoms: CA_2280  and  CB_2283
REMARK  1288  A    between atoms: CB_2283  and  CG_2284
REMARK  1289  A    between atoms: N_2293  and  CA_2294
REMARK  1290  A    between atoms: CA_2294  and  C_2295
REMARK                            x       y       z     vdW  Elec       q    Type
REMARK                         _______ _______ _______ _____ _____    ______ ____
ROOT
ATOM      1  C   UNL     4     -41.508  38.261   6.512  0.00  0.00    +0.003 C 
ATOM      2  C   UNL     4     -41.569  38.107   4.981  0.00  0.00    +0.003 C 
ATOM      3  C   UNL     4     -40.784  38.576   5.389  0.00  0.00    -0.007 C 
ENDROOT
TORSDOF 0
REMARK  Name = /Users/wangyang/Desktop/Breast_cancer_brain_metastasis/wang_Gene/AIDD/15_Protein_ligand_docking/data_7ztl/protein.pdb
REMARK  1290 active torsions:
REMARK  status: ('A' for Active; 'I' for Inactive)
REMARK    1  A    between atoms: N_1  and  CA_2
REMARK    2  A    between atoms: CA_2  and  C_3
REMARK    3  A    between atoms: N_5  and  CA_6
REMARK    4  A    between atoms: CA_6  and  C_7
REMARK    5  A    between atoms: CA_6  and  CB_9
REMARK    6  A    between atoms: N_10  and  CA_11
REMARK    7  A    between atoms: CA_11  and  C_12
REMARK    8  A    between atoms: CA_11  and  CB_14
REMARK    9  A    between atoms: CB_14  and  CG_15
REMARK   10  A    between atoms: N_24  and  CA_25
REMARK   11  A    between atoms: CA_25  and  C_26
REMARK   12  A    between atoms: CA_25  and  CB_28
REMARK   13  A    between atoms: N_29  and  CA_30
REMARK   14  A    between atoms: CA_30  and  C_31
REMARK   15  A    between atoms: CA_30  and  CB_33
REMARK   16  A    between atoms: CB_33  and  CG_34
REMARK   17  A    between atoms: CG_34  and  CD1_35
REMARK   18  A    between atoms: CG_34  and  CD2_36
REMARK   19  A    between atoms: N_37  and  CA_38
REMARK   20  A    between atoms: CA_38  and  C_39
REMARK   21  A    between atoms: CA_38  and  CB_41
REMARK   22  A    between atoms: CB_41  and  CG_42
REMARK   23  A    between atoms: CG_42  and  CD_43
REMARK   24  A    between atoms: N_46  and  CA_47
REMARK   25  A    between atoms: CA_47  and  C_48
REMARK   26  A    between atoms: CA_47  and  CB_50
REMARK   27  A    between atoms: CB_50  and  CG_51
REMARK   28  A    between atoms: N_54  and  CA_55
REMARK   29  A    between atoms: CA_55  and  C_56
REMARK   30  A    between atoms: CA_55  and  CB_58
REMARK   31  A    between atoms: CB_58  and  CG_59
REMARK   32  A    between atoms: N_65  and  CA_66
REMARK   33  A    between atoms: CA_66  and  C_67
REMARK   34  A    between atoms: CA_66  and  CB_69
REMARK   35  A    between atoms: CB_69  and  CG_70
REMARK   36  A    between atoms: CG_70  and  CD_71
REMARK   37  A    between atoms: N_74  and  CA_75
REMARK   38  A    between atoms: CA_75  and  C_76
REMARK   39  A    between atoms: CA_75  and  CB_78
REMARK   40  A    between atoms: CB_78  and  CG1_79
REMARK   41  A    between atoms: CB_78  and  CG2_80
REMARK   42  A    between atoms: CG1_79  and  CD1_81
REMARK   43  A    between atoms: N_82  and  CA_83
REMARK   44  A    between atoms: CA_83  and  C_84
REMARK   45  A    between atoms: N_86  and  CA_87
REMARK   46  A    between atoms: CA_87  and  C_88
REMARK   47  A    between atoms: CA_87  and  CB_90
REMARK   48  A    between atoms: CB_90  and  CG_91
REMARK   49  A    between atoms: CG_91  and  CD_92
REMARK   50  A    between atoms: CD_92  and  NE_93
REMARK   51  A    between atoms: CA_98  and  C_99
REMARK   52  A    between atoms: N_104  and  CA_105
REMARK   53  A    between atoms: CA_105  and  C_106
REMARK   54  A    between atoms: CA_105  and  CB_108
REMARK   55  A    between atoms: CB_108  and  CG_109
REMARK   56  A    between atoms: CG_109  and  CD1_110
REMARK   57  A    between atoms: CG_109  and  CD2_111
REMARK   58  A    between atoms: N_112  and  CA_113
REMARK   59  A    between atoms: CA_113  and  C_114
REMARK   60  A    between atoms: N_116  and  C_117
REMARK   61  A    between atoms: C_117  and  C_118
REMARK   62  A    between atoms: C_117  and  C_120
REMARK   63  A    between atoms: C_120  and  C_121
REMARK   64  A    between atoms: C_121  and  C_122
REMARK   65  A    between atoms: N_123  and  CA_124
REMARK   66  A    between atoms: CA_124  and  C_125
REMARK   67  A    between atoms: N_127  and  CA_128
REMARK   68  A    between atoms: CA_128  and  C_129
REMARK   69  A    between atoms: CA_128  and  CB_131
REMARK   70  A    between atoms: CB_131  and  CG_132
REMARK   71  A    between atoms: CG_132  and  CD_133
REMARK   72  A    between atoms: CD_133  and  CE_134
REMARK   73  A    between atoms: CE_134  and  NZ_135
REMARK   74  A    between atoms: N_136  and  CA_137
REMARK   75  A    between atoms: CA_137  and  C_138
REMARK   76  A    between atoms: CA_137  and  CB_140
REMARK   77  A    between atoms: CB_140  and  CG_141
REMARK   78  A    between atoms: N_147  and  CA_148
REMARK   79  A    between atoms: CA_148  and  C_149
REMARK   80  A    between atoms: N_151  and  CA_152
REMARK   81  A    between atoms: CA_152  and  C_153
REMARK   82  A    between atoms: CA_152  and  CB_155
REMARK   83  A    between atoms: CB_155  and  CG_156
REMARK   84  A    between atoms: N_159  and  CA_160
REMARK   85  A    between atoms: CA_160  and  C_161
REMARK   86  A    between atoms: CA_160  and  CB_163
REMARK   87  A    between atoms: CB_163  and  CG1_164
REMARK   88  A    between atoms: CB_163  and  CG2_165
REMARK   89  A    between atoms: N_166  and  CA_167
REMARK   90  A    between atoms: CA_167  and  C_168
REMARK   91  A    between atoms: CA_167  and  CB_170
REMARK   92  A    between atoms: CB_170  and  CG_171
REMARK   93  A    between atoms: CZ_176  and  OH_177
REMARK   94  A    between atoms: N_178  and  CA_179
REMARK   95  A    between atoms: CA_179  and  C_180
REMARK   96  A    between atoms: CA_179  and  CB_182
REMARK   97  A    between atoms: CB_182  and  CG_183
REMARK   98  A    between atoms: CG_183  and  CD1_184
REMARK   99  A    between atoms: CG_183  and  CD2_185
REMARK  100  A    between atoms: N_186  and  CA_187
REMARK  101  A    between atoms: CA_187  and  C_188
REMARK  102  A    between atoms: CA_187  and  CB_190
REMARK  103  A    between atoms: N_191  and  CA_192
REMARK  104  A    between atoms: CA_192  and  C_193
REMARK  105  A    between atoms: CA_192  and  CB_195
REMARK  106  A    between atoms: CB_195  and  CG_196
REMARK  107  A    between atoms: CG_196  and  CD_197
REMARK  108  A    between atoms: CD_197  and  NE_198
REMARK  109  A    between atoms: N_202  and  CA_203
REMARK  110  A    between atoms: CA_203  and  C_204
REMARK  111  A    between atoms: CA_203  and  CB_206
REMARK  112  A    between atoms: CB_206  and  CG_207
REMARK  113  A    between atoms: CG_207  and  CD_208
REMARK  114  A    between atoms: N_211  and  CA_212
REMARK  115  A    between atoms: CA_212  and  C_213
REMARK  116  A    between atoms: CA_212  and  CB_215
REMARK  117  A    between atoms: CB_215  and  CG_216
REMARK  118  A    between atoms: CG_216  and  CD_217
REMARK  119  A    between atoms: CD_217  and  CE_218
REMARK  120  A    between atoms: CE_218  and  NZ_219
REMARK  121  A    between atoms: N_220  and  CA_221
REMARK  122  A    between atoms: CA_221  and  C_222
REMARK  123  A    between atoms: CA_221  and  CB_224
REMARK  124  A    between atoms: N_225  and  CA_226
REMARK  125  A    between atoms: CA_226  and  C_227
REMARK  126  A    between atoms: CA_226  and  CB_229
REMARK  127  A    between atoms: CB_229  and  OG_230
REMARK  128  A    between atoms: N_231  and  CA_232
REMARK  129  A    between atoms: CA_232  and  C_233
REMARK  130  A    between atoms: CA_232  and  CB_235
REMARK  131  A    between atoms: CB_235  and  CG_236
REMARK  132  A    between atoms: CG_236  and  CD_237
REMARK  133  A    between atoms: CD_237  and  CE_238
REMARK  134  A    between atoms: CE_238  and  NZ_239
REMARK  135  A    between atoms: N_240  and  CA_241
REMARK  136  A    between atoms: CA_241  and  C_242
REMARK  137  A    between atoms: CA_241  and  CB_244
REMARK  138  A    between atoms: CB_244  and  CG_245
REMARK  139  A    between atoms: N_251  and  CA_252
REMARK  140  A    between atoms: CA_252  and  C_253
REMARK  141  A    between atoms: CA_252  and  CB_255
REMARK  142  A    between atoms: CB_255  and  CG1_256
REMARK  143  A    between atoms: CB_255  and  CG2_257
REMARK  144  A    between atoms: CG1_256  and  CD1_258
REMARK  145  A    between atoms: N_259  and  CA_260
REMARK  146  A    between atoms: CA_260  and  C_261
REMARK  147  A    between atoms: CA_260  and  CB_263
REMARK  148  A    between atoms: CB_263  and  CG_264
REMARK  149  A    between atoms: CG_264  and  CD1_265
REMARK  150  A    between atoms: CG_264  and  CD2_266
REMARK  151  A    between atoms: N_267  and  CA_268
REMARK  152  A    between atoms: CA_268  and  C_269
REMARK  153  A    between atoms: CA_268  and  CB_271
REMARK  154  A    between atoms: N_272  and  CA_273
REMARK  155  A    between atoms: CA_273  and  C_274
REMARK  156  A    between atoms: CA_273  and  CB_276
REMARK  157  A    between atoms: CB_276  and  CG_277
REMARK  158  A    between atoms: CG_277  and  CD2_278
REMARK  159  A    between atoms: CG_277  and  CD1_279
REMARK  160  A    between atoms: N_280  and  CA_281
REMARK  161  A    between atoms: CA_281  and  C_282
REMARK  162  A    between atoms: CA_281  and  CB_284
REMARK  163  A    between atoms: CB_284  and  CG_285
REMARK  164  A    between atoms: CG_285  and  CD_286
REMARK  165  A    between atoms: CD_286  and  CE_287
REMARK  166  A    between atoms: CE_287  and  NZ_288
REMARK  167  A    between atoms: N_289  and  CA_290
REMARK  168  A    between atoms: CA_290  and  C_291
REMARK  169  A    between atoms: CA_290  and  CB_293
REMARK  170  A    between atoms: CB_293  and  CG2_294
REMARK  171  A    between atoms: CB_293  and  CG1_295
REMARK  172  A    between atoms: N_296  and  CA_297
REMARK  173  A    between atoms: CA_297  and  C_298
REMARK  174  A    between atoms: CA_297  and  CB_300
REMARK  175  A    between atoms: CB_300  and  CG_301
REMARK  176  A    between atoms: CG_301  and  CD1_302
REMARK  177  A    between atoms: CG_301  and  CD2_303
REMARK  178  A    between atoms: N_304  and  CA_305
REMARK  179  A    between atoms: CA_305  and  C_306
REMARK  180  A    between atoms: CA_305  and  CB_308
REMARK  181  A    between atoms: CB_308  and  CG_309
REMARK  182  A    between atoms: N_315  and  CA_316
REMARK  183  A    between atoms: CA_316  and  C_317
REMARK  184  A    between atoms: CA_316  and  CB_319
REMARK  185  A    between atoms: CB_319  and  CG_320
REMARK  186  A    between atoms: CG_320  and  CD_321
REMARK  187  A    between atoms: CD_321  and  CE_322
REMARK  188  A    between atoms: CE_322  and  NZ_323
REMARK  189  A    between atoms: N_324  and  CA_325
REMARK  190  A    between atoms: CA_325  and  C_326
REMARK  191  A    between atoms: CA_325  and  CB_328
REMARK  192  A    between atoms: N_329  and  CA_330
REMARK  193  A    between atoms: CA_330  and  C_331
REMARK  194  A    between atoms: CA_330  and  CB_333
REMARK  195  A    between atoms: CB_333  and  CG_334
REMARK  196  A    between atoms: CG_334  and  CD_335
REMARK  197  A    between atoms: N_338  and  CA_339
REMARK  198  A    between atoms: CA_339  and  C_340
REMARK  199  A    between atoms: CA_339  and  CB_342
REMARK  200  A    between atoms: CB_342  and  CG_343
REMARK  201  A    between atoms: CG_343  and  CD1_344
REMARK  202  A    between atoms: CG_343  and  CD2_345
REMARK  203  A    between atoms: N_346  and  CA_347
REMARK  204  A    between atoms: CA_347  and  C_348
REMARK  205  A    between atoms: CA_347  and  CB_350
REMARK  206  A    between atoms: CB_350  and  CG_351
REMARK  207  A    between atoms: CG_351  and  CD_352
REMARK  208  A    between atoms: N_355  and  C_356
REMARK  209  A    between atoms: C_356  and  C_357
REMARK  210  A    between atoms: C_356  and  C_359
REMARK  211  A    between atoms: C_359  and  C_360
REMARK  212  A    between atoms: N_361  and  CA_362
REMARK  213  A    between atoms: CA_362  and  C_363
REMARK  214  A    between atoms: CA_362  and  CB_365
REMARK  215  A    between atoms: N_366  and  CA_367
REMARK  216  A    between atoms: CA_367  and  C_368
REMARK  217  A    between atoms: N_370  and  CA_371
REMARK  218  A    between atoms: CA_371  and  C_372
REMARK  219  A    between atoms: CA_371  and  CB_374
REMARK  220  A    between atoms: CB_374  and  CG2_375
REMARK  221  A    between atoms: CB_374  and  CG1_376
REMARK  222  A    between atoms: N_377  and  CA_378
REMARK  223  A    between atoms: CA_378  and  C_379
REMARK  224  A    between atoms: CA_378  and  CB_381
REMARK  225  A    between atoms: CB_381  and  CG_382
REMARK  226  A    between atoms: CG_382  and  CD_383
REMARK  227  A    between atoms: N_386  and  CA_387
REMARK  228  A    between atoms: CA_387  and  C_388
REMARK  229  A    between atoms: CA_387  and  CB_390
REMARK  230  A    between atoms: CB_390  and  CG_391
REMARK  231  A    between atoms: N_396  and  CA_397
REMARK  232  A    between atoms: CA_397  and  C_398
REMARK  233  A    between atoms: CA_397  and  CB_400
REMARK  234  A    between atoms: CB_400  and  CG_401
REMARK  235  A    between atoms: CG_401  and  CD_402
REMARK  236  A    between atoms: N_405  and  CA_406
REMARK  237  A    between atoms: CA_406  and  C_407
REMARK  238  A    between atoms: CA_406  and  CB_409
REMARK  239  A    between atoms: CB_409  and  CG_410
REMARK  240  A    between atoms: CG_410  and  CD2_411
REMARK  241  A    between atoms: CG_410  and  CD1_412
REMARK  242  A    between atoms: N_413  and  CA_414
REMARK  243  A    between atoms: CA_414  and  C_415
REMARK  244  A    between atoms: CA_414  and  CB_417
REMARK  245  A    between atoms: CB_417  and  CG_418
REMARK  246  A    between atoms: CG_418  and  CD_419
REMARK  247  A    between atoms: CD_419  and  NE_420
REMARK  248  A    between atoms: N_424  and  CA_425
REMARK  249  A    between atoms: CA_425  and  C_426
REMARK  250  A    between atoms: CA_425  and  CB_428
REMARK  251  A    between atoms: CB_428  and  CG_429
REMARK  252  A    between atoms: CG_429  and  CD_430
REMARK  253  A    between atoms: CD_430  and  NE_431
REMARK  254  A    between atoms: N_435  and  CA_436
REMARK  255  A    between atoms: CA_436  and  C_437
REMARK  256  A    between atoms: CA_436  and  CB_439
REMARK  257  A    between atoms: CB_439  and  CG_440
REMARK  258  A    between atoms: CG_440  and  CD_441
REMARK  259  A    between atoms: N_444  and  CA_445
REMARK  260  A    between atoms: CA_445  and  C_446
REMARK  261  A    between atoms: CA_445  and  CB_448
REMARK  262  A    between atoms: CB_448  and  CG1_449
REMARK  263  A    between atoms: CB_448  and  CG2_450
REMARK  264  A    between atoms: N_451  and  C_452
REMARK  265  A    between atoms: C_452  and  C_453
REMARK  266  A    between atoms: C_452  and  C_455
REMARK  267  A    between atoms: C_455  and  C_456
REMARK  268  A    between atoms: N_457  and  CA_458
REMARK  269  A    between atoms: CA_458  and  C_459
REMARK  270  A    between atoms: CA_458  and  CB_461
REMARK  271  A    between atoms: CB_461  and  CG1_462
REMARK  272  A    between atoms: CB_461  and  CG2_463
REMARK  273  A    between atoms: CG1_462  and  CD1_464
REMARK  274  A    between atoms: N_465  and  CA_466
REMARK  275  A    between atoms: CA_466  and  C_467
REMARK  276  A    between atoms: CA_466  and  CB_469
REMARK  277  A    between atoms: CB_469  and  CG_470
REMARK  278  A    between atoms: CG_470  and  CD_471
REMARK  279  A    between atoms: N_474  and  C_475
REMARK  280  A    between atoms: C_475  and  C_476
REMARK  281  A    between atoms: C_475  and  C_478
REMARK  282  A    between atoms: C_478  and  O_479
REMARK  283  A    between atoms: N_480  and  C_481
REMARK  284  A    between atoms: C_481  and  C_482
REMARK  285  A    between atoms: C_481  and  C_484
REMARK  286  A    between atoms: C_484  and  C_485
REMARK  287  A    between atoms: N_490  and  C_491
REMARK  288  A    between atoms: C_491  and  C_492
REMARK  289  A    between atoms: C_491  and  C_494
REMARK  290  A    between atoms: C_494  and  C_495
REMARK  291  A    between atoms: C_495  and  C_496
REMARK  292  A    between atoms: C_495  and  C_497
REMARK  293  A    between atoms: N_498  and  C_499
REMARK  294  A    between atoms: C_499  and  C_500
REMARK  295  A    between atoms: C_499  and  C_502
REMARK  296  A    between atoms: C_502  and  C_503
REMARK  297  A    between atoms: C_503  and  C_504
REMARK  298  A    between atoms: C_504  and  N_505
REMARK  299  A    between atoms: N_509  and  C_510
REMARK  300  A    between atoms: C_510  and  C_511
REMARK  301  A    between atoms: C_510  and  C_513
REMARK  302  A    between atoms: C_513  and  C_514
REMARK  303  A    between atoms: C_520  and  C_521
REMARK  304  A    between atoms: N_526  and  C_527
REMARK  305  A    between atoms: C_527  and  C_528
REMARK  306  A    between atoms: C_527  and  C_530
REMARK  307  A    between atoms: C_530  and  C_531
REMARK  308  A    between atoms: N_534  and  C_535
REMARK  309  A    between atoms: C_535  and  C_536
REMARK  310  A    between atoms: C_535  and  C_538
REMARK  311  A    between atoms: C_538  and  C_539
REMARK  312  A    between atoms: C_538  and  C_540
REMARK  313  A    between atoms: C_539  and  C_541
REMARK  314  A    between atoms: N_542  and  C_543
REMARK  315  A    between atoms: C_543  and  C_544
REMARK  316  A    between atoms: C_543  and  C_546
REMARK  317  A    between atoms: C_546  and  C_547
REMARK  318  A    between atoms: C_547  and  C_548
REMARK  319  A    between atoms: C_547  and  C_549
REMARK  320  A    between atoms: N_550  and  C_551
REMARK  321  A    between atoms: C_551  and  C_552
REMARK  322  A    between atoms: C_551  and  C_554
REMARK  323  A    between atoms: C_554  and  C_555
REMARK  324  A    between atoms: C_555  and  C_556
REMARK  325  A    between atoms: C_556  and  N_557
REMARK  326  A    between atoms: N_561  and  C_562
REMARK  327  A    between atoms: C_562  and  C_567
REMARK  328  A    between atoms: C_563  and  C_564
REMARK  329  A    between atoms: C_568  and  C_569
REMARK  330  A    between atoms: C_568  and  C_571
REMARK  331  A    between atoms: C_569  and  C_572
REMARK  332  A    between atoms: C_569  and  C_573
REMARK  333  A    between atoms: C_570  and  C_573
REMARK  334  A    between atoms: N_574  and  CA_575
REMARK  335  A    between atoms: CA_575  and  C_576
REMARK  336  A    between atoms: CA_575  and  CB_578
REMARK  337  A    between atoms: CB_578  and  CG_579
REMARK  338  A    between atoms: CZ_584  and  OH_585
REMARK  339  A    between atoms: N_586  and  CA_587
REMARK  340  A    between atoms: CA_587  and  C_588
REMARK  341  A    between atoms: N_590  and  CA_591
REMARK  342  A    between atoms: CA_591  and  C_592
REMARK  343  A    between atoms: CA_591  and  CB_594
REMARK  344  A    between atoms: CB_594  and  CG_595
REMARK  345  A    between atoms: CZ_600  and  OH_601
REMARK  346  A    between atoms: N_602  and  CA_603
REMARK  347  A    between atoms: CA_603  and  C_604
REMARK  348  A    between atoms: CA_603  and  CB_606
REMARK  349  A    between atoms: CB_606  and  CG_607
REMARK  350  A    between atoms: N_613  and  CA_614
REMARK  351  A    between atoms: CA_614  and  C_615
REMARK  352  A    between atoms: CA_614  and  CB_617
REMARK  353  A    between atoms: CB_617  and  CG_618
REMARK  354  A    between atoms: N_623  and  CA_624
REMARK  355  A    between atoms: CA_624  and  C_625
REMARK  356  A    between atoms: CA_624  and  CB_627
REMARK  357  A    between atoms: CB_627  and  CG_628
REMARK  358  A    between atoms: N_631  and  CA_632
REMARK  359  A    between atoms: CA_632  and  C_633
REMARK  360  A    between atoms: CA_632  and  CB_635
REMARK  361  A    between atoms: N_636  and  CA_637
REMARK  362  A    between atoms: CA_637  and  C_638
REMARK  363  A    between atoms: CA_637  and  CB_640
REMARK  364  A    between atoms: CB_640  and  OG1_641
REMARK  365  A    between atoms: CB_640  and  CG2_642
REMARK  366  A    between atoms: N_643  and  CA_644
REMARK  367  A    between atoms: CA_644  and  C_645
REMARK  368  A    between atoms: CA_644  and  CB_647
REMARK  369  A    between atoms: CB_647  and  CG_648
REMARK  370  A    between atoms: CG_648  and  CD_649
REMARK  371  A    between atoms: CD_649  and  NE_650
REMARK  372  A    between atoms: N_654  and  CA_655
REMARK  373  A    between atoms: CA_655  and  C_656
REMARK  374  A    between atoms: CA_655  and  CB_658
REMARK  375  A    between atoms: CB_658  and  CG1_659
REMARK  376  A    between atoms: CB_658  and  CG2_660
REMARK  377  A    between atoms: N_661  and  CA_662
REMARK  378  A    between atoms: CA_662  and  C_663
REMARK  379  A    between atoms: CA_662  and  CB_665
REMARK  380  A    between atoms: CB_665  and  CG_666
REMARK  381  A    between atoms: CZ_671  and  OH_672
REMARK  382  A    between atoms: N_673  and  CA_674
REMARK  383  A    between atoms: CA_674  and  C_675
REMARK  384  A    between atoms: CA_674  and  CB_677
REMARK  385  A    between atoms: CB_677  and  CG_678
REMARK  386  A    between atoms: CG_678  and  CD2_679
REMARK  387  A    between atoms: CG_678  and  CD1_680
REMARK  388  A    between atoms: N_681  and  CA_682
REMARK  389  A    between atoms: CA_682  and  C_683
REMARK  390  A    between atoms: CA_682  and  CB_685
REMARK  391  A    between atoms: CB_685  and  CG1_686
REMARK  392  A    between atoms: CB_685  and  CG2_687
REMARK  393  A    between atoms: CG1_686  and  CD1_688
REMARK  394  A    between atoms: N_689  and  CA_690
REMARK  395  A    between atoms: CA_690  and  C_691
REMARK  396  A    between atoms: CA_690  and  CB_693
REMARK  397  A    between atoms: CB_693  and  CG_694
REMARK  398  A    between atoms: CG_694  and  CD2_695
REMARK  399  A    between atoms: CG_694  and  CD1_696
REMARK  400  A    between atoms: N_697  and  CA_698
REMARK  401  A    between atoms: CA_698  and  C_699
REMARK  402  A    between atoms: CA_698  and  CB_701
REMARK  403  A    between atoms: CB_701  and  CG_702
REMARK  404  A    between atoms: CG_702  and  CD_703
REMARK  405  A    between atoms: N_706  and  CA_707
REMARK  406  A    between atoms: CA_707  and  C_708
REMARK  407  A    between atoms: CA_707  and  CB_710
REMARK  408  A    between atoms: CB_710  and  CG_711
REMARK  409  A    between atoms: CZ_716  and  OH_717
REMARK  410  A    between atoms: N_718  and  CA_719
REMARK  411  A    between atoms: CA_719  and  C_720
REMARK  412  A    between atoms: CA_719  and  CB_722
REMARK  413  A    between atoms: CA_724  and  C_725
REMARK  414  A    between atoms: N_730  and  CA_731
REMARK  415  A    between atoms: CA_731  and  C_732
REMARK  416  A    between atoms: CA_731  and  CB_734
REMARK  417  A    between atoms: CB_734  and  CG_735
REMARK  418  A    between atoms: CG_735  and  CD1_736
REMARK  419  A    between atoms: CG_735  and  CD2_737
REMARK  420  A    between atoms: N_738  and  CA_739
REMARK  421  A    between atoms: CA_739  and  C_740
REMARK  422  A    between atoms: N_742  and  CA_743
REMARK  423  A    between atoms: CA_743  and  C_744
REMARK  424  A    between atoms: CA_743  and  CB_746
REMARK  425  A    between atoms: CB_746  and  OG1_747
REMARK  426  A    between atoms: CB_746  and  CG2_748
REMARK  427  A    between atoms: N_749  and  CA_750
REMARK  428  A    between atoms: CA_750  and  C_751
REMARK  429  A    between atoms: CA_750  and  CB_753
REMARK  430  A    between atoms: CB_753  and  CG2_754
REMARK  431  A    between atoms: CB_753  and  CG1_755
REMARK  432  A    between atoms: N_756  and  CA_757
REMARK  433  A    between atoms: CA_757  and  C_758
REMARK  434  A    between atoms: CA_757  and  CB_760
REMARK  435  A    between atoms: CB_760  and  CG_761
REMARK  436  A    between atoms: CZ_766  and  OH_767
REMARK  437  A    between atoms: N_768  and  C_769
REMARK  438  A    between atoms: C_769  and  C_770
REMARK  439  A    between atoms: C_769  and  C_772
REMARK  440  A    between atoms: C_772  and  C_773
REMARK  441  A    between atoms: N_774  and  CA_775
REMARK  442  A    between atoms: CA_775  and  C_776
REMARK  443  A    between atoms: CA_775  and  CB_778
REMARK  444  A    between atoms: CB_778  and  CG_779
REMARK  445  A    between atoms: CG_779  and  CD_780
REMARK  446  A    between atoms: N_783  and  CA_784
REMARK  447  A    between atoms: CA_784  and  C_785
REMARK  448  A    between atoms: CA_784  and  CB_787
REMARK  449  A    between atoms: CB_787  and  CG_788
REMARK  450  A    between atoms: CG_788  and  CD2_789
REMARK  451  A    between atoms: CG_788  and  CD1_790
REMARK  452  A    between atoms: N_791  and  CA_792
REMARK  453  A    between atoms: CA_792  and  C_793
REMARK  454  A    between atoms: CA_792  and  CB_795
REMARK  455  A    between atoms: CB_795  and  CG_796
REMARK  456  A    between atoms: CG_796  and  CD_797
REMARK  457  A    between atoms: N_800  and  CA_801
REMARK  458  A    between atoms: CA_801  and  C_802
REMARK  459  A    between atoms: CA_801  and  CB_804
REMARK  460  A    between atoms: CB_804  and  CG_805
REMARK  461  A    between atoms: CG_805  and  CD_806
REMARK  462  A    between atoms: CD_806  and  CE_807
REMARK  463  A    between atoms: CE_807  and  NZ_808
REMARK  464  A    between atoms: N_809  and  CA_810
REMARK  465  A    between atoms: CA_810  and  C_811
REMARK  466  A    between atoms: CA_810  and  CB_813
REMARK  467  A    between atoms: CB_813  and  CG_814
REMARK  468  A    between atoms: CG_814  and  CD1_815
REMARK  469  A    between atoms: CG_814  and  CD2_816
REMARK  470  A    between atoms: N_817  and  CA_818
REMARK  471  A    between atoms: CA_818  and  C_819
REMARK  472  A    between atoms: CA_818  and  CB_821
REMARK  473  A    between atoms: CB_821  and  OG_822
REMARK  474  A    between atoms: N_823  and  CA_824
REMARK  475  A    between atoms: CA_824  and  C_825
REMARK  476  A    between atoms: CA_824  and  CB_827
REMARK  477  A    between atoms: CB_827  and  CG_828
REMARK  478  A    between atoms: CG_828  and  CD_829
REMARK  479  A    between atoms: CD_829  and  CE_830
REMARK  480  A    between atoms: CE_830  and  NZ_831
REMARK  481  A    between atoms: N_832  and  CA_833
REMARK  482  A    between atoms: CA_833  and  C_834
REMARK  483  A    between atoms: CA_833  and  CB_836
REMARK  484  A    between atoms: CB_836  and  CG_837
REMARK  485  A    between atoms: N_843  and  CA_844
REMARK  486  A    between atoms: CA_844  and  C_845
REMARK  487  A    between atoms: CA_844  and  CB_847
REMARK  488  A    between atoms: CB_847  and  CG_848
REMARK  489  A    between atoms: N_851  and  CA_852
REMARK  490  A    between atoms: CA_852  and  C_853
REMARK  491  A    between atoms: CA_852  and  CB_855
REMARK  492  A    between atoms: CB_855  and  CG_856
REMARK  493  A    between atoms: CG_856  and  CD_857
REMARK  494  A    between atoms: N_860  and  CA_861
REMARK  495  A    between atoms: CA_861  and  C_862
REMARK  496  A    between atoms: CA_861  and  CB_864
REMARK  497  A    between atoms: CB_864  and  CG_865
REMARK  498  A    between atoms: CG_865  and  CD_866
REMARK  499  A    between atoms: N_869  and  CA_870
REMARK  500  A    between atoms: CA_870  and  C_871
REMARK  501  A    between atoms: CA_870  and  CB_873
REMARK  502  A    between atoms: CB_873  and  CG_874
REMARK  503  A    between atoms: CG_874  and  CD_875
REMARK  504  A    between atoms: CD_875  and  NE_876
REMARK  505  A    between atoms: N_880  and  CA_881
REMARK  506  A    between atoms: CA_881  and  C_882
REMARK  507  A    between atoms: CA_881  and  CB_884
REMARK  508  A    between atoms: CB_884  and  OG1_885
REMARK  509  A    between atoms: CB_884  and  CG2_886
REMARK  510  A    between atoms: N_887  and  CA_888
REMARK  511  A    between atoms: CA_888  and  C_889
REMARK  512  A    between atoms: CA_888  and  CB_891
REMARK  513  A    between atoms: N_892  and  CA_893
REMARK  514  A    between atoms: CA_893  and  C_894
REMARK  515  A    between atoms: CA_893  and  CB_896
REMARK  516  A    between atoms: CB_896  and  OG1_897
REMARK  517  A    between atoms: CB_896  and  CG2_898
REMARK  518  A    between atoms: N_899  and  CA_900
REMARK  519  A    between atoms: CA_900  and  C_901
REMARK  520  A    between atoms: CA_900  and  CB_903
REMARK  521  A    between atoms: CB_903  and  CG_904
REMARK  522  A    between atoms: CZ_909  and  OH_910
REMARK  523  A    between atoms: N_911  and  CA_912
REMARK  524  A    between atoms: CA_912  and  C_913
REMARK  525  A    between atoms: CA_912  and  CB_915
REMARK  526  A    between atoms: CB_915  and  CG1_916
REMARK  527  A    between atoms: CB_915  and  CG2_917
REMARK  528  A    between atoms: CG1_916  and  CD1_918
REMARK  529  A    between atoms: N_919  and  CA_920
REMARK  530  A    between atoms: CA_920  and  C_921
REMARK  531  A    between atoms: CA_920  and  CB_923
REMARK  532  A    between atoms: CB_923  and  OG1_924
REMARK  533  A    between atoms: CB_923  and  CG2_925
REMARK  534  A    between atoms: N_926  and  CA_927
REMARK  535  A    between atoms: CA_927  and  C_928
REMARK  536  A    between atoms: CA_927  and  CB_930
REMARK  537  A    between atoms: CB_930  and  CG_931
REMARK  538  A    between atoms: CG_931  and  CD_932
REMARK  539  A    between atoms: N_935  and  CA_936
REMARK  540  A    between atoms: CA_936  and  C_937
REMARK  541  A    between atoms: CA_936  and  CB_939
REMARK  542  A    between atoms: CB_939  and  CG_940
REMARK  543  A    between atoms: CG_940  and  CD2_941
REMARK  544  A    between atoms: CG_940  and  CD1_942
REMARK  545  A    between atoms: N_943  and  CA_944
REMARK  546  A    between atoms: CA_944  and  C_945
REMARK  547  A    between atoms: CA_944  and  CB_947
REMARK  548  A    between atoms: N_948  and  CA_949
REMARK  549  A    between atoms: CA_949  and  C_950
REMARK  550  A    between atoms: CA_949  and  CB_952
REMARK  551  A    between atoms: CB_952  and  CG_953
REMARK  552  A    between atoms: N_956  and  CA_957
REMARK  553  A    between atoms: CA_957  and  C_958
REMARK  554  A    between atoms: CA_957  and  CB_960
REMARK  555  A    between atoms: N_961  and  CA_962
REMARK  556  A    between atoms: CA_962  and  C_963
REMARK  557  A    between atoms: CA_962  and  CB_965
REMARK  558  A    between atoms: CB_965  and  CG_966
REMARK  559  A    between atoms: CG_966  and  CD2_967
REMARK  560  A    between atoms: CG_966  and  CD1_968
REMARK  561  A    between atoms: N_969  and  CA_970
REMARK  562  A    between atoms: CA_970  and  C_971
REMARK  563  A    between atoms: CA_970  and  CB_973
REMARK  564  A    between atoms: CB_973  and  OG_974
REMARK  565  A    between atoms: N_975  and  CA_976
REMARK  566  A    between atoms: CA_976  and  C_977
REMARK  567  A    between atoms: CA_976  and  CB_979
REMARK  568  A    between atoms: CB_979  and  CG_980
REMARK  569  A    between atoms: CZ_985  and  OH_986
REMARK  570  A    between atoms: N_987  and  CA_988
REMARK  571  A    between atoms: CA_988  and  C_989
REMARK  572  A    between atoms: CA_988  and  CB_991
REMARK  573  A    between atoms: CB_991  and  SG_992
REMARK  574  A    between atoms: N_993  and  CA_994
REMARK  575  A    between atoms: CA_994  and  C_995
REMARK  576  A    between atoms: CA_994  and  CB_997
REMARK  577  A    between atoms: CB_997  and  CG_998
REMARK  578  A    between atoms: N_1003  and  C_1004
REMARK  579  A    between atoms: C_1004  and  C_1005
REMARK  580  A    between atoms: C_1004  and  C_1007
REMARK  581  A    between atoms: C_1007  and  O_1008
REMARK  582  A    between atoms: N_1009  and  C_1010
REMARK  583  A    between atoms: C_1010  and  C_1011
REMARK  584  A    between atoms: C_1010  and  C_1013
REMARK  585  A    between atoms: C_1013  and  C_1014
REMARK  586  A    between atoms: C_1014  and  C_1015
REMARK  587  A    between atoms: C_1015  and  C_1016
REMARK  588  A    between atoms: C_1016  and  N_1017
REMARK  589  A    between atoms: N_1018  and  C_1019
REMARK  590  A    between atoms: C_1020  and  C_1021
REMARK  591  A    between atoms: C_1020  and  C_1024
REMARK  592  A    between atoms: C_1023  and  C_1026
REMARK  593  A    between atoms: C_1025  and  C_1026
REMARK  594  A    between atoms: C_1027  and  N_1029
REMARK  595  A    between atoms: C_1028  and  N_1030
REMARK  596  A    between atoms: N_1037  and  C_1038
REMARK  597  A    between atoms: C_1038  and  C_1039
REMARK  598  A    between atoms: C_1038  and  C_1041
REMARK  599  A    between atoms: C_1041  and  C_1042
REMARK  600  A    between atoms: C_1041  and  C_1043
REMARK  601  A    between atoms: N_1044  and  C_1045
REMARK  602  A    between atoms: C_1045  and  C_1046
REMARK  603  A    between atoms: C_1045  and  C_1048
REMARK  604  A    between atoms: C_1048  and  C_1049
REMARK  605  A    between atoms: C_1048  and  C_1050
REMARK  606  A    between atoms: C_1049  and  C_1051
REMARK  607  A    between atoms: N_1052  and  C_1053
REMARK  608  A    between atoms: C_1053  and  C_1054
REMARK  609  A    between atoms: C_1053  and  C_1056
REMARK  610  A    between atoms: C_1056  and  C_1057
REMARK  611  A    between atoms: N_1062  and  C_1063
REMARK  612  A    between atoms: C_1063  and  C_1064
REMARK  613  A    between atoms: C_1063  and  C_1066
REMARK  614  A    between atoms: C_1066  and  C_1067
REMARK  615  A    between atoms: C_1067  and  C_1068
REMARK  616  A    between atoms: C_1068  and  N_1069
REMARK  617  A    between atoms: N_1073  and  C_1074
REMARK  618  A    between atoms: C_1074  and  C_1077
REMARK  619  A    between atoms: C_1077  and  C_1078
REMARK  620  A    between atoms: N_1081  and  C_1084
REMARK  621  A    between atoms: C_1083  and  C_1085
REMARK  622  A    between atoms: C_1085  and  C_1086
REMARK  623  A    between atoms: C_1085  and  O_1087
REMARK  624  A    between atoms: C_1085  and  N_1097
REMARK  625  A    between atoms: C_1089  and  C_1094
REMARK  626  A    between atoms: C_1090  and  C_1091
REMARK  627  A    between atoms: C_1093  and  C_1094
REMARK  628  A    between atoms: C_1098  and  C_1099
REMARK  629  A    between atoms: C_1098  and  C_1101
REMARK  630  A    between atoms: C_1101  and  C_1102
REMARK  631  A    between atoms: C_1102  and  C_1103
REMARK  632  A    between atoms: C_1103  and  C_1104
REMARK  633  A    between atoms: C_1104  and  N_1105
REMARK  634  A    between atoms: C_1107  and  C_1108
REMARK  635  A    between atoms: N_1113  and  CA_1114
REMARK  636  A    between atoms: CA_1114  and  C_1115
REMARK  637  A    between atoms: CA_1114  and  CB_1117
REMARK  638  A    between atoms: CB_1117  and  CG_1118
REMARK  639  A    between atoms: CG_1118  and  CD_1119
REMARK  640  A    between atoms: N_1122  and  CA_1123
REMARK  641  A    between atoms: CA_1123  and  C_1124
REMARK  642  A    between atoms: CA_1123  and  CB_1126
REMARK  643  A    between atoms: CB_1126  and  CG_1127
REMARK  644  A    between atoms: N_1130  and  CA_1131
REMARK  645  A    between atoms: CA_1131  and  C_1132
REMARK  646  A    between atoms: CA_1131  and  CB_1134
REMARK  647  A    between atoms: CB_1134  and  CG_1135
REMARK  648  A    between atoms: CG_1135  and  CD2_1136
REMARK  649  A    between atoms: CG_1135  and  CD1_1137
REMARK  650  A    between atoms: N_1138  and  CA_1139
REMARK  651  A    between atoms: CA_1139  and  C_1140
REMARK  652  A    between atoms: CA_1139  and  CB_1142
REMARK  653  A    between atoms: CB_1142  and  CG_1143
REMARK  654  A    between atoms: CG_1143  and  CD1_1144
REMARK  655  A    between atoms: CG_1143  and  CD2_1145
REMARK  656  A    between atoms: N_1146  and  CA_1147
REMARK  657  A    between atoms: CA_1147  and  C_1148
REMARK  658  A    between atoms: CA_1147  and  CB_1150
REMARK  659  A    between atoms: CB_1150  and  CG_1151
REMARK  660  A    between atoms: CG_1151  and  CD2_1152
REMARK  661  A    between atoms: CG_1151  and  CD1_1153
REMARK  662  A    between atoms: N_1154  and  CA_1155
REMARK  663  A    between atoms: CA_1155  and  C_1156
REMARK  664  A    between atoms: N_1158  and  CA_1159
REMARK  665  A    between atoms: CA_1159  and  C_1160
REMARK  666  A    between atoms: CA_1159  and  CB_1162
REMARK  667  A    between atoms: CB_1162  and  OG_1163
REMARK  668  A    between atoms: N_1164  and  CA_1165
REMARK  669  A    between atoms: CA_1165  and  C_1166
REMARK  670  A    between atoms: CA_1165  and  CB_1168
REMARK  671  A    between atoms: N_1169  and  CA_1170
REMARK  672  A    between atoms: CA_1170  and  C_1171
REMARK  673  A    between atoms: N_1173  and  CA_1174
REMARK  674  A    between atoms: CA_1174  and  C_1175
REMARK  675  A    between atoms: CA_1174  and  CB_1177
REMARK  676  A    between atoms: CB_1177  and  CG_1178
REMARK  677  A    between atoms: CG_1178  and  CD_1179
REMARK  678  A    between atoms: N_1182  and  CA_1183
REMARK  679  A    between atoms: CA_1183  and  C_1184
REMARK  680  A    between atoms: CA_1183  and  CB_1186
REMARK  681  A    between atoms: CB_1186  and  CG_1187
REMARK  682  A    between atoms: CG_1187  and  CD2_1188
REMARK  683  A    between atoms: CG_1187  and  CD1_1189
REMARK  684  A    between atoms: N_1190  and  CA_1191
REMARK  685  A    between atoms: CA_1191  and  C_1192
REMARK  686  A    between atoms: CA_1191  and  CB_1194
REMARK  687  A    between atoms: CB_1194  and  CG_1195
REMARK  688  A    between atoms: CG_1195  and  CD_1196
REMARK  689  A    between atoms: CD_1196  and  CE_1197
REMARK  690  A    between atoms: CE_1197  and  NZ_1198
REMARK  691  A    between atoms: N_1199  and  CA_1200
REMARK  692  A    between atoms: CA_1200  and  C_1201
REMARK  693  A    between atoms: CA_1200  and  CB_1203
REMARK  694  A    between atoms: CB_1203  and  CG1_1204
REMARK  695  A    between atoms: CB_1203  and  CG2_1205
REMARK  696  A    between atoms: CG1_1204  and  CD1_1206
REMARK  697  A    between atoms: N_1207  and  CA_1208
REMARK  698  A    between atoms: CA_1208  and  C_1209
REMARK  699  A    between atoms: CA_1208  and  CB_1211
REMARK  700  A    between atoms: N_1212  and  CA_1213
REMARK  701  A    between atoms: CA_1213  and  C_1214
REMARK  702  A    between atoms: CA_1213  and  CB_1216
REMARK  703  A    between atoms: CB_1216  and  CG_1217
REMARK  704  A    between atoms: N_1220  and  CA_1221
REMARK  705  A    between atoms: CA_1221  and  C_1222
REMARK  706  A    between atoms: CA_1221  and  CB_1224
REMARK  707  A    between atoms: CB_1224  and  CG_1225
REMARK  708  A    between atoms: N_1231  and  CA_1232
REMARK  709  A    between atoms: CA_1232  and  C_1233
REMARK  710  A    between atoms: N_1235  and  CA_1236
REMARK  711  A    between atoms: CA_1236  and  C_1237
REMARK  712  A    between atoms: CA_1236  and  CB_1239
REMARK  713  A    between atoms: CB_1239  and  CG_1240
REMARK  714  A    between atoms: N_1249  and  CA_1250
REMARK  715  A    between atoms: CA_1250  and  C_1251
REMARK  716  A    between atoms: CA_1250  and  CB_1253
REMARK  717  A    between atoms: CB_1253  and  OG_1254
REMARK  718  A    between atoms: N_1255  and  CA_1256
REMARK  719  A    between atoms: CA_1256  and  C_1257
REMARK  720  A    between atoms: CA_1256  and  CB_1259
REMARK  721  A    between atoms: CB_1259  and  CG2_1260
REMARK  722  A    between atoms: CB_1259  and  CG1_1261
REMARK  723  A    between atoms: N_1262  and  CA_1263
REMARK  724  A    between atoms: CA_1263  and  C_1264
REMARK  725  A    between atoms: CA_1263  and  CB_1266
REMARK  726  A    between atoms: CB_1266  and  CG_1267
REMARK  727  A    between atoms: N_1272  and  CA_1273
REMARK  728  A    between atoms: CA_1273  and  C_1274
REMARK  729  A    between atoms: CA_1273  and  CB_1276
REMARK  730  A    between atoms: CA_1278  and  C_1279
REMARK  731  A    between atoms: N_1284  and  CA_1285
REMARK  732  A    between atoms: CA_1285  and  C_1286
REMARK  733  A    between atoms: CA_1285  and  CB_1288
REMARK  734  A    between atoms: CB_1288  and  OG_1289
REMARK  735  A    between atoms: N_1290  and  CA_1291
REMARK  736  A    between atoms: CA_1291  and  C_1292
REMARK  737  A    between atoms: CA_1291  and  CB_1294
REMARK  738  A    between atoms: CB_1294  and  OG_1295
REMARK  739  A    between atoms: N_1296  and  C_1297
REMARK  740  A    between atoms: C_1297  and  C_1298
REMARK  741  A    between atoms: C_1297  and  C_1300
REMARK  742  A    between atoms: C_1300  and  C_1301
REMARK  743  A    between atoms: C_1301  and  C_1302
REMARK  744  A    between atoms: N_1303  and  CA_1304
REMARK  745  A    between atoms: CA_1304  and  C_1305
REMARK  746  A    between atoms: CA_1304  and  CB_1307
REMARK  747  A    between atoms: CB_1307  and  CG_1308
REMARK  748  A    between atoms: CG_1308  and  CD_1309
REMARK  749  A    between atoms: CD_1309  and  NE_1310
REMARK  750  A    between atoms: N_1314  and  CA_1315
REMARK  751  A    between atoms: CA_1315  and  C_1316
REMARK  752  A    between atoms: CA_1315  and  CB_1318
REMARK  753  A    between atoms: CB_1318  and  OG1_1319
REMARK  754  A    between atoms: CB_1318  and  CG2_1320
REMARK  755  A    between atoms: N_1321  and  C_1322
REMARK  756  A    between atoms: C_1322  and  C_1323
REMARK  757  A    between atoms: C_1322  and  C_1325
REMARK  758  A    between atoms: C_1325  and  C_1326
REMARK  759  A    between atoms: C_1326  and  C_1327
REMARK  760  A    between atoms: C_1326  and  C_1328
REMARK  761  A    between atoms: N_1329  and  C_1330
REMARK  762  A    between atoms: C_1330  and  C_1331
REMARK  763  A    between atoms: C_1330  and  C_1333
REMARK  764  A    between atoms: N_1334  and  C_1335
REMARK  765  A    between atoms: C_1335  and  C_1336
REMARK  766  A    between atoms: N_1338  and  C_1339
REMARK  767  A    between atoms: C_1339  and  C_1340
REMARK  768  A    between atoms: C_1339  and  C_1342
REMARK  769  A    between atoms: C_1342  and  O_1343
REMARK  770  A    between atoms: C_1342  and  C_1344
REMARK  771  A    between atoms: N_1345  and  C_1346
REMARK  772  A    between atoms: C_1346  and  C_1347
REMARK  773  A    between atoms: C_1346  and  C_1349
REMARK  774  A    between atoms: C_1349  and  C_1350
REMARK  775  A    between atoms: C_1350  and  C_1351
REMARK  776  A    between atoms: C_1350  and  C_1352
REMARK  777  A    between atoms: N_1353  and  C_1354
REMARK  778  A    between atoms: C_1354  and  C_1355
REMARK  779  A    between atoms: C_1354  and  C_1357
REMARK  780  A    between atoms: C_1357  and  C_1358
REMARK  781  A    between atoms: N_1361  and  C_1362
REMARK  782  A    between atoms: C_1362  and  C_1363
REMARK  783  A    between atoms: C_1362  and  C_1365
REMARK  784  A    between atoms: C_1365  and  C_1366
REMARK  785  A    between atoms: C_1371  and  O_1372
REMARK  786  A    between atoms: N_1373  and  C_1374
REMARK  787  A    between atoms: C_1374  and  C_1375
REMARK  788  A    between atoms: C_1374  and  C_1377
REMARK  789  A    between atoms: C_1377  and  C_1378
REMARK  790  A    between atoms: C_1378  and  C_1379
REMARK  791  A    between atoms: C_1378  and  C_1380
REMARK  792  A    between atoms: C_1382  and  C_1383
REMARK  793  A    between atoms: C_1389  and  C_1390
REMARK  794  A    between atoms: N_1395  and  C_1396
REMARK  795  A    between atoms: C_1396  and  C_1399
REMARK  796  A    between atoms: C_1399  and  C_1400
REMARK  797  A    between atoms: C_1400  and  C_1401
REMARK  798  A    between atoms: N_1405  and  C_1406
REMARK  799  A    between atoms: C_1407  and  C_1412
REMARK  800  A    between atoms: C_1408  and  O_1410
REMARK  801  A    between atoms: C_1409  and  O_1411
REMARK  802  A    between atoms: O_1410  and  O_1411
REMARK  803  A    between atoms: C_1412  and  C_1414
REMARK  804  A    between atoms: C_1413  and  C_1415
REMARK  805  A    between atoms: S_1416  and  C_1418
REMARK  806  A    between atoms: S_1417  and  C_1419
REMARK  807  A    between atoms: C_1418  and  C_1419
REMARK  808  A    between atoms: N_1420  and  CA_1421
REMARK  809  A    between atoms: CA_1421  and  C_1422
REMARK  810  A    between atoms: CA_1421  and  CB_1424
REMARK  811  A    between atoms: CB_1424  and  CG1_1425
REMARK  812  A    between atoms: CB_1424  and  CG2_1426
REMARK  813  A    between atoms: CG1_1425  and  CD1_1427
REMARK  814  A    between atoms: N_1428  and  CA_1429
REMARK  815  A    between atoms: CA_1429  and  C_1430
REMARK  816  A    between atoms: CA_1429  and  CB_1432
REMARK  817  A    between atoms: CB_1432  and  CG_1433
REMARK  818  A    between atoms: CG_1433  and  CD_1434
REMARK  819  A    between atoms: N_1437  and  CA_1438
REMARK  820  A    between atoms: CA_1438  and  C_1439
REMARK  821  A    between atoms: N_1441  and  CA_1442
REMARK  822  A    between atoms: CA_1442  and  C_1443
REMARK  823  A    between atoms: CA_1442  and  CB_1445
REMARK  824  A    between atoms: CB_1445  and  CG_1446
REMARK  825  A    between atoms: CG_1446  and  CD_1447
REMARK  826  A    between atoms: CD_1447  and  NE_1448
REMARK  827  A    between atoms: N_1452  and  C_1453
REMARK  828  A    between atoms: C_1453  and  C_1454
REMARK  829  A    between atoms: C_1453  and  C_1456
REMARK  830  A    between atoms: C_1456  and  C_1457
REMARK  831  A    between atoms: C_1457  and  S_1458
REMARK  832  A    between atoms: N_1459  and  CA_1460
REMARK  833  A    between atoms: CA_1460  and  C_1461
REMARK  834  A    between atoms: CA_1460  and  CB_1463
REMARK  835  A    between atoms: CB_1463  and  CG_1464
REMARK  836  A    between atoms: N_1469  and  CA_1470
REMARK  837  A    between atoms: CA_1470  and  C_1471
REMARK  838  A    between atoms: CA_1470  and  CB_1473
REMARK  839  A    between atoms: CB_1473  and  CG_1474
REMARK  840  A    between atoms: N_1477  and  CA_1478
REMARK  841  A    between atoms: CA_1478  and  C_1479
REMARK  842  A    between atoms: CA_1478  and  CB_1481
REMARK  843  A    between atoms: CB_1481  and  CG_1482
REMARK  844  A    between atoms: CG_1482  and  CD_1483
REMARK  845  A    between atoms: N_1486  and  CA_1487
REMARK  846  A    between atoms: CA_1487  and  C_1488
REMARK  847  A    between atoms: CA_1487  and  CB_1490
REMARK  848  A    between atoms: CB_1490  and  CG_1491
REMARK  849  A    between atoms: CG_1491  and  CD_1492
REMARK  850  A    between atoms: CD_1492  and  CE_1493
REMARK  851  A    between atoms: CE_1493  and  NZ_1494
REMARK  852  A    between atoms: N_1495  and  CA_1496
REMARK  853  A    between atoms: CA_1496  and  C_1497
REMARK  854  A    between atoms: CA_1496  and  CB_1499
REMARK  855  A    between atoms: CB_1499  and  CG2_1500
REMARK  856  A    between atoms: CB_1499  and  CG1_1501
REMARK  857  A    between atoms: N_1502  and  CA_1503
REMARK  858  A    between atoms: CA_1503  and  C_1504
REMARK  859  A    between atoms: CA_1503  and  CB_1506
REMARK  860  A    between atoms: CB_1506  and  CG_1507
REMARK  861  A    between atoms: N_1510  and  CA_1511
REMARK  862  A    between atoms: CA_1511  and  C_1512
REMARK  863  A    between atoms: CA_1511  and  CB_1514
REMARK  864  A    between atoms: CB_1514  and  CG_1515
REMARK  865  A    between atoms: CG_1515  and  CD2_1516
REMARK  866  A    between atoms: CG_1515  and  CD1_1517
REMARK  867  A    between atoms: N_1518  and  CA_1519
REMARK  868  A    between atoms: CA_1519  and  C_1520
REMARK  869  A    between atoms: CA_1519  and  CB_1522
REMARK  870  A    between atoms: CB_1522  and  CG_1523
REMARK  871  A    between atoms: N_1532  and  CA_1533
REMARK  872  A    between atoms: CA_1533  and  C_1534
REMARK  873  A    between atoms: CA_1533  and  CB_1536
REMARK  874  A    between atoms: CB_1536  and  OG_1537
REMARK  875  A    between atoms: N_1538  and  CA_1539
REMARK  876  A    between atoms: CA_1539  and  C_1540
REMARK  877  A    between atoms: CA_1539  and  CB_1542
REMARK  878  A    between atoms: CB_1542  and  CG_1543
REMARK  879  A    between atoms: CG_1543  and  CD2_1544
REMARK  880  A    between atoms: CG_1543  and  CD1_1545
REMARK  881  A    between atoms: N_1546  and  CA_1547
REMARK  882  A    between atoms: CA_1547  and  C_1548
REMARK  883  A    between atoms: N_1550  and  CA_1551
REMARK  884  A    between atoms: CA_1551  and  C_1552
REMARK  885  A    between atoms: CA_1551  and  CB_1554
REMARK  886  A    between atoms: CB_1554  and  CG2_1555
REMARK  887  A    between atoms: CB_1554  and  CG1_1556
REMARK  888  A    between atoms: N_1557  and  CA_1558
REMARK  889  A    between atoms: CA_1558  and  C_1559
REMARK  890  A    between atoms: CA_1558  and  CB_1561
REMARK  891  A    between atoms: CB_1561  and  CG_1562
REMARK  892  A    between atoms: CG_1562  and  CD1_1563
REMARK  893  A    between atoms: CG_1562  and  CD2_1564
REMARK  894  A    between atoms: N_1565  and  CA_1566
REMARK  895  A    between atoms: CA_1566  and  C_1567
REMARK  896  A    between atoms: CA_1566  and  CB_1569
REMARK  897  A    between atoms: CB_1569  and  SG_1570
REMARK  898  A    between atoms: N_1571  and  CA_1572
REMARK  899  A    between atoms: CA_1572  and  C_1573
REMARK  900  A    between atoms: CA_1572  and  CB_1575
REMARK  901  A    between atoms: CB_1575  and  CG_1576
REMARK  902  A    between atoms: CZ_1581  and  OH_1582
REMARK  903  A    between atoms: N_1583  and  CA_1584
REMARK  904  A    between atoms: CA_1584  and  C_1585
REMARK  905  A    between atoms: CA_1584  and  CB_1587
REMARK  906  A    between atoms: CB_1587  and  CG_1588
REMARK  907  A    between atoms: CG_1588  and  CD_1589
REMARK  908  A    between atoms: N_1592  and  CA_1593
REMARK  909  A    between atoms: CA_1593  and  C_1594
REMARK  910  A    between atoms: CA_1593  and  CB_1596
REMARK  911  A    between atoms: CB_1596  and  CG_1597
REMARK  912  A    between atoms: N_1603  and  CA_1604
REMARK  913  A    between atoms: CA_1604  and  C_1605
REMARK  914  A    between atoms: CA_1604  and  CB_1607
REMARK  915  A    between atoms: CB_1607  and  CG_1608
REMARK  916  A    between atoms: CG_1608  and  CD1_1609
REMARK  917  A    between atoms: CG_1608  and  CD2_1610
REMARK  918  A    between atoms: N_1611  and  CA_1612
REMARK  919  A    between atoms: CA_1612  and  C_1613
REMARK  920  A    between atoms: CA_1612  and  CB_1615
REMARK  921  A    between atoms: CB_1615  and  CG2_1616
REMARK  922  A    between atoms: CB_1615  and  CG1_1617
REMARK  923  A    between atoms: N_1618  and  CA_1619
REMARK  924  A    between atoms: CA_1619  and  C_1620
REMARK  925  A    between atoms: N_1622  and  C_1623
REMARK  926  A    between atoms: C_1623  and  C_1624
REMARK  927  A    between atoms: C_1623  and  C_1626
REMARK  928  A    between atoms: C_1626  and  C_1627
REMARK  929  A    between atoms: C_1627  and  C_1628
REMARK  930  A    between atoms: CA_1630  and  C_1631
REMARK  931  A    between atoms: CA_1637  and  C_1638
REMARK  932  A    between atoms: N_1643  and  CA_1644
REMARK  933  A    between atoms: CA_1644  and  C_1645
REMARK  934  A    between atoms: CA_1644  and  CB_1647
REMARK  935  A    between atoms: CB_1647  and  CG_1648
REMARK  936  A    between atoms: N_1654  and  CA_1655
REMARK  937  A    between atoms: CA_1655  and  C_1656
REMARK  938  A    between atoms: CA_1655  and  CB_1658
REMARK  939  A    between atoms: CB_1658  and  CG_1659
REMARK  940  A    between atoms: CG_1659  and  CD_1660
REMARK  941  A    between atoms: N_1663  and  CA_1664
REMARK  942  A    between atoms: CA_1664  and  C_1665
REMARK  943  A    between atoms: CA_1664  and  CB_1667
REMARK  944  A    between atoms: N_1668  and  CA_1669
REMARK  945  A    between atoms: CA_1669  and  C_1670
REMARK  946  A    between atoms: CA_1669  and  CB_1672
REMARK  947  A    between atoms: CB_1672  and  CG_1673
REMARK  948  A    between atoms: N_1676  and  CA_1677
REMARK  949  A    between atoms: CA_1677  and  C_1678
REMARK  950  A    between atoms: CA_1677  and  CB_1680
REMARK  951  A    between atoms: CB_1680  and  OG1_1681
REMARK  952  A    between atoms: CB_1680  and  CG2_1682
REMARK  953  A    between atoms: N_1683  and  CA_1684
REMARK  954  A    between atoms: CA_1684  and  C_1685
REMARK  955  A    between atoms: CA_1684  and  CB_1687
REMARK  956  A    between atoms: CB_1687  and  CG_1688
REMARK  957  A    between atoms: CZ_1693  and  OH_1694
REMARK  958  A    between atoms: N_1695  and  CA_1696
REMARK  959  A    between atoms: CA_1696  and  C_1697
REMARK  960  A    between atoms: CA_1696  and  CB_1699
REMARK  961  A    between atoms: CB_1699  and  CG_1700
REMARK  962  A    between atoms: CG_1700  and  CD_1701
REMARK  963  A    between atoms: N_1704  and  CA_1705
REMARK  964  A    between atoms: CA_1705  and  C_1706
REMARK  965  A    between atoms: CA_1705  and  CB_1708
REMARK  966  A    between atoms: CB_1708  and  CG_1709
REMARK  967  A    between atoms: CG_1709  and  CD_1710
REMARK  968  A    between atoms: N_1713  and  CA_1714
REMARK  969  A    between atoms: CA_1714  and  C_1715
REMARK  970  A    between atoms: CA_1714  and  CB_1717
REMARK  971  A    between atoms: CB_1717  and  OG1_1718
REMARK  972  A    between atoms: CB_1717  and  CG2_1719
REMARK  973  A    between atoms: N_1720  and  CA_1721
REMARK  974  A    between atoms: CA_1721  and  C_1722
REMARK  975  A    between atoms: CA_1721  and  CB_1724
REMARK  976  A    between atoms: CB_1724  and  CG_1725
REMARK  977  A    between atoms: CZ_1730  and  OH_1731
REMARK  978  A    between atoms: N_1732  and  CA_1733
REMARK  979  A    between atoms: CA_1733  and  C_1734
REMARK  980  A    between atoms: CA_1733  and  CB_1736
REMARK  981  A    between atoms: CB_1736  and  SG_1737
REMARK  982  A    between atoms: N_1738  and  C_1739
REMARK  983  A    between atoms: C_1739  and  C_1740
REMARK  984  A    between atoms: C_1739  and  C_1742
REMARK  985  A    between atoms: C_1742  and  C_1743
REMARK  986  A    between atoms: C_1743  and  C_1744
REMARK  987  A    between atoms: C_1744  and  N_1745
REMARK  988  A    between atoms: N_1746  and  CA_1747
REMARK  989  A    between atoms: CA_1747  and  C_1748
REMARK  990  A    between atoms: CA_1747  and  CB_1750
REMARK  991  A    between atoms: CB_1750  and  CG1_1751
REMARK  992  A    between atoms: CB_1750  and  CG2_1752
REMARK  993  A    between atoms: CG1_1751  and  CD1_1753
REMARK  994  A    between atoms: N_1754  and  C_1755
REMARK  995  A    between atoms: C_1755  and  C_1756
REMARK  996  A    between atoms: C_1755  and  C_1758
REMARK  997  A    between atoms: C_1758  and  O_1759
REMARK  998  A    between atoms: N_1760  and  C_1761
REMARK  999  A    between atoms: C_1761  and  C_1762
REMARK  1000  A    between atoms: C_1761  and  C_1764
REMARK  1001  A    between atoms: C_1764  and  C_1765
REMARK  1002  A    between atoms: C_1765  and  C_1766
REMARK  1003  A    between atoms: C_1766  and  N_1767
REMARK  1004  A    between atoms: N_1771  and  C_1772
REMARK  1005  A    between atoms: C_1772  and  C_1773
REMARK  1006  A    between atoms: C_1772  and  C_1775
REMARK  1007  A    between atoms: C_1775  and  C_1776
REMARK  1008  A    between atoms: C_1775  and  C_1777
REMARK  1009  A    between atoms: N_1778  and  C_1779
REMARK  1010  A    between atoms: C_1779  and  C_1780
REMARK  1011  A    between atoms: C_1779  and  C_1782
REMARK  1012  A    between atoms: C_1782  and  C_1783
REMARK  1013  A    between atoms: C_1783  and  C_1784
REMARK  1014  A    between atoms: N_1787  and  C_1788
REMARK  1015  A    between atoms: C_1788  and  C_1789
REMARK  1016  A    between atoms: C_1788  and  C_1791
REMARK  1017  A    between atoms: C_1791  and  C_1792
REMARK  1018  A    between atoms: N_1798  and  C_1799
REMARK  1019  A    between atoms: C_1799  and  C_1800
REMARK  1020  A    between atoms: C_1799  and  C_1802
REMARK  1021  A    between atoms: C_1802  and  O_1803
REMARK  1022  A    between atoms: C_1802  and  C_1804
REMARK  1023  A    between atoms: N_1805  and  C_1806
REMARK  1024  A    between atoms: C_1806  and  C_1807
REMARK  1025  A    between atoms: C_1806  and  C_1809
REMARK  1026  A    between atoms: C_1809  and  C_1810
REMARK  1027  A    between atoms: C_1817  and  C_1818
REMARK  1028  A    between atoms: N_1823  and  C_1824
REMARK  1029  A    between atoms: C_1824  and  C_1825
REMARK  1030  A    between atoms: C_1824  and  C_1827
REMARK  1031  A    between atoms: C_1827  and  C_1828
REMARK  1032  A    between atoms: N_1831  and  C_1832
REMARK  1033  A    between atoms: C_1832  and  C_1833
REMARK  1034  A    between atoms: C_1832  and  C_1835
REMARK  1035  A    between atoms: C_1835  and  C_1836
REMARK  1036  A    between atoms: N_1842  and  C_1843
REMARK  1037  A    between atoms: C_1843  and  C_1844
REMARK  1038  A    between atoms: C_1843  and  C_1846
REMARK  1039  A    between atoms: C_1846  and  C_1847
REMARK  1040  A    between atoms: C_1846  and  C_1848
REMARK  1041  A    between atoms: N_1849  and  C_1850
REMARK  1042  A    between atoms: C_1850  and  C_1851
REMARK  1043  A    between atoms: C_1850  and  C_1853
REMARK  1044  A    between atoms: C_1853  and  O_1854
REMARK  1045  A    between atoms: C_1853  and  C_1855
REMARK  1046  A    between atoms: N_1856  and  C_1857
REMARK  1047  A    between atoms: C_1858  and  C_1859
REMARK  1048  A    between atoms: C_1858  and  C_1861
REMARK  1049  A    between atoms: C_1862  and  C_1863
REMARK  1050  A    between atoms: C_1862  and  C_1864
REMARK  1051  A    between atoms: C_1863  and  C_1865
REMARK  1052  A    between atoms: N_1871  and  C_1872
REMARK  1053  A    between atoms: C_1872  and  C_1873
REMARK  1054  A    between atoms: N_1875  and  CA_1876
REMARK  1055  A    between atoms: CA_1876  and  C_1877
REMARK  1056  A    between atoms: CA_1876  and  CB_1879
REMARK  1057  A    between atoms: N_1880  and  CA_1881
REMARK  1058  A    between atoms: CA_1881  and  C_1882
REMARK  1059  A    between atoms: CA_1881  and  CB_1884
REMARK  1060  A    between atoms: CB_1884  and  CG_1885
REMARK  1061  A    between atoms: CG_1885  and  CD_1886
REMARK  1062  A    between atoms: CD_1886  and  NE_1887
REMARK  1063  A    between atoms: N_1891  and  CA_1892
REMARK  1064  A    between atoms: CA_1892  and  C_1893
REMARK  1065  A    between atoms: CA_1892  and  CB_1895
REMARK  1066  A    between atoms: CB_1895  and  CG_1896
REMARK  1067  A    between atoms: N_1899  and  CA_1900
REMARK  1068  A    between atoms: CA_1900  and  C_1901
REMARK  1069  A    between atoms: CA_1900  and  CB_1903
REMARK  1070  A    between atoms: CB_1903  and  CG_1904
REMARK  1071  A    between atoms: CG_1904  and  CD1_1905
REMARK  1072  A    between atoms: CG_1904  and  CD2_1906
REMARK  1073  A    between atoms: N_1907  and  CA_1908
REMARK  1074  A    between atoms: CA_1908  and  C_1909
REMARK  1075  A    between atoms: CA_1908  and  CB_1911
REMARK  1076  A    between atoms: CB_1911  and  CG1_1912
REMARK  1077  A    between atoms: CB_1911  and  CG2_1913
REMARK  1078  A    between atoms: CG1_1912  and  CD1_1914
REMARK  1079  A    between atoms: N_1915  and  CA_1916
REMARK  1080  A    between atoms: CA_1916  and  C_1917
REMARK  1081  A    between atoms: CA_1916  and  CB_1919
REMARK  1082  A    between atoms: CB_1919  and  OG_1920
REMARK  1083  A    between atoms: N_1921  and  CA_1922
REMARK  1084  A    between atoms: CA_1922  and  C_1923
REMARK  1085  A    between atoms: CA_1922  and  CB_1925
REMARK  1086  A    between atoms: CB_1925  and  CG_1926
REMARK  1087  A    between atoms: CG_1926  and  CD_1927
REMARK  1088  A    between atoms: CD_1927  and  NE_1928
REMARK  1089  A    between atoms: N_1932  and  CA_1933
REMARK  1090  A    between atoms: CA_1933  and  C_1934
REMARK  1091  A    between atoms: CA_1933  and  CB_1936
REMARK  1092  A    between atoms: CB_1936  and  CG_1937
REMARK  1093  A    between atoms: CG_1937  and  CD2_1938
REMARK  1094  A    between atoms: CG_1937  and  CD1_1939
REMARK  1095  A    between atoms: N_1940  and  CA_1941
REMARK  1096  A    between atoms: CA_1941  and  C_1942
REMARK  1097  A    between atoms: CA_1941  and  CB_1944
REMARK  1098  A    between atoms: CB_1944  and  CG_1945
REMARK  1099  A    between atoms: CG_1945  and  CD2_1946
REMARK  1100  A    between atoms: CG_1945  and  CD1_1947
REMARK  1101  A    between atoms: N_1948  and  CA_1949
REMARK  1102  A    between atoms: CA_1949  and  C_1950
REMARK  1103  A    between atoms: CA_1949  and  CB_1952
REMARK  1104  A    between atoms: CB_1952  and  CG_1953
REMARK  1105  A    between atoms: CG_1953  and  CD_1954
REMARK  1106  A    between atoms: CD_1954  and  CE_1955
REMARK  1107  A    between atoms: CE_1955  and  NZ_1956
REMARK  1108  A    between atoms: N_1957  and  CA_1958
REMARK  1109  A    between atoms: CA_1958  and  C_1959
REMARK  1110  A    between atoms: CA_1958  and  CB_1961
REMARK  1111  A    between atoms: CB_1961  and  CG_1962
REMARK  1112  A    between atoms: N_1967  and  CA_1968
REMARK  1113  A    between atoms: CA_1968  and  C_1969
REMARK  1114  A    between atoms: CA_1968  and  CB_1971
REMARK  1115  A    between atoms: CB_1971  and  CG_1972
REMARK  1116  A    between atoms: CA_1976  and  C_1977
REMARK  1117  A    between atoms: N_1982  and  C_1983
REMARK  1118  A    between atoms: C_1983  and  C_1984
REMARK  1119  A    between atoms: C_1983  and  C_1986
REMARK  1120  A    between atoms: C_1986  and  O_1987
REMARK  1121  A    between atoms: N_1988  and  C_1989
REMARK  1122  A    between atoms: C_1989  and  C_1990
REMARK  1123  A    between atoms: C_1989  and  C_1992
REMARK  1124  A    between atoms: C_1992  and  C_1993
REMARK  1125  A    between atoms: C_1993  and  C_1994
REMARK  1126  A    between atoms: N_1997  and  C_1998
REMARK  1127  A    between atoms: C_1998  and  C_1999
REMARK  1128  A    between atoms: C_1998  and  C_2001
REMARK  1129  A    between atoms: C_2001  and  C_2002
REMARK  1130  A    between atoms: C_2002  and  C_2003
REMARK  1131  A    between atoms: C_2003  and  N_2004
REMARK  1132  A    between atoms: C_2009  and  C_2010
REMARK  1133  A    between atoms: N_2015  and  C_2017
REMARK  1134  A    between atoms: C_2016  and  C_2018
REMARK  1135  A    between atoms: C_2016  and  C_2021
REMARK  1136  A    between atoms: C_2021  and  C_2022
REMARK  1137  A    between atoms: C_2022  and  C_2023
REMARK  1138  A    between atoms: C_2023  and  S_2024
REMARK  1139  A    between atoms: C_2023  and  S_2025
REMARK  1140  A    between atoms: S_2024  and  C_2026
REMARK  1141  A    between atoms: S_2025  and  C_2027
REMARK  1142  A    between atoms: N_2028  and  CA_2029
REMARK  1143  A    between atoms: CA_2029  and  C_2030
REMARK  1144  A    between atoms: CA_2029  and  CB_2032
REMARK  1145  A    between atoms: CB_2032  and  CG_2033
REMARK  1146  A    between atoms: CG_2033  and  CD1_2034
REMARK  1147  A    between atoms: CG_2033  and  CD2_2035
REMARK  1148  A    between atoms: N_2036  and  CA_2037
REMARK  1149  A    between atoms: CA_2037  and  C_2038
REMARK  1150  A    between atoms: CA_2037  and  CB_2040
REMARK  1151  A    between atoms: N_2041  and  CA_2042
REMARK  1152  A    between atoms: CA_2042  and  C_2043
REMARK  1153  A    between atoms: CA_2042  and  CB_2045
REMARK  1154  A    between atoms: CB_2045  and  CG_2046
REMARK  1155  A    between atoms: CG_2046  and  CD_2047
REMARK  1156  A    between atoms: N_2050  and  CA_2051
REMARK  1157  A    between atoms: CA_2051  and  C_2052
REMARK  1158  A    between atoms: CA_2051  and  CB_2054
REMARK  1159  A    between atoms: CB_2054  and  CG2_2055
REMARK  1160  A    between atoms: CB_2054  and  CG1_2056
REMARK  1161  A    between atoms: N_2057  and  CA_2058
REMARK  1162  A    between atoms: CA_2058  and  C_2059
REMARK  1163  A    between atoms: CA_2058  and  CB_2061
REMARK  1164  A    between atoms: CB_2061  and  CG_2062
REMARK  1165  A    between atoms: CG_2062  and  CD1_2063
REMARK  1166  A    between atoms: CG_2062  and  CD2_2064
REMARK  1167  A    between atoms: N_2065  and  CA_2066
REMARK  1168  A    between atoms: CA_2066  and  C_2067
REMARK  1169  A    between atoms: CA_2066  and  CB_2069
REMARK  1170  A    between atoms: CB_2069  and  CG_2070
REMARK  1171  A    between atoms: CG_2070  and  CD_2071
REMARK  1172  A    between atoms: N_2074  and  CA_2075
REMARK  1173  A    between atoms: CA_2075  and  C_2076
REMARK  1174  A    between atoms: CA_2075  and  CB_2078
REMARK  1175  A    between atoms: CB_2078  and  CG_2079
REMARK  1176  A    between atoms: CA_2085  and  C_2086
REMARK  1177  A    between atoms: N_2091  and  CA_2092
REMARK  1178  A    between atoms: CA_2092  and  C_2093
REMARK  1179  A    between atoms: CA_2092  and  CB_2095
REMARK  1180  A    between atoms: CB_2095  and  CG_2096
REMARK  1181  A    between atoms: N_2105  and  CA_2106
REMARK  1182  A    between atoms: CA_2106  and  C_2107
REMARK  1183  A    between atoms: CA_2106  and  CB_2109
REMARK  1184  A    between atoms: CB_2109  and  CG1_2110
REMARK  1185  A    between atoms: CB_2109  and  CG2_2111
REMARK  1186  A    between atoms: CG1_2110  and  CD1_2112
REMARK  1187  A    between atoms: N_2113  and  CA_2114
REMARK  1188  A    between atoms: CA_2114  and  C_2115
REMARK  1189  A    between atoms: CA_2114  and  CB_2117
REMARK  1190  A    between atoms: CB_2117  and  OG1_2118
REMARK  1191  A    between atoms: CB_2117  and  CG2_2119
REMARK  1192  A    between atoms: N_2120  and  CA_2121
REMARK  1193  A    between atoms: CA_2121  and  C_2122
REMARK  1194  A    between atoms: CA_2121  and  CB_2124
REMARK  1195  A    between atoms: N_2125  and  CA_2126
REMARK  1196  A    between atoms: CA_2126  and  C_2127
REMARK  1197  A    between atoms: CA_2126  and  CB_2129
REMARK  1198  A    between atoms: CB_2129  and  CG_2130
REMARK  1199  A    between atoms: N_2133  and  CA_2134
REMARK  1200  A    between atoms: CA_2134  and  C_2135
REMARK  1201  A    between atoms: CA_2134  and  CB_2137
REMARK  1202  A    between atoms: CB_2137  and  OG_2138
REMARK  1203  A    between atoms: N_2139  and  CA_2140
REMARK  1204  A    between atoms: CA_2140  and  C_2141
REMARK  1205  A    between atoms: CA_2140  and  CB_2143
REMARK  1206  A    between atoms: CB_2143  and  OG_2144
REMARK  1207  A    between atoms: N_2145  and  C_2146
REMARK  1208  A    between atoms: C_2146  and  C_2147
REMARK  1209  A    between atoms: C_2146  and  C_2149
REMARK  1210  A    between atoms: C_2149  and  C_2150
REMARK  1211  A    between atoms: N_2151  and  CA_2152
REMARK  1212  A    between atoms: CA_2152  and  C_2153
REMARK  1213  A    between atoms: CA_2152  and  CB_2155
REMARK  1214  A    between atoms: CB_2155  and  OG_2156
REMARK  1215  A    between atoms: N_2157  and  CA_2158
REMARK  1216  A    between atoms: CA_2158  and  C_2159
REMARK  1217  A    between atoms: CA_2158  and  CB_2161
REMARK  1218  A    between atoms: CB_2161  and  CG_2162
REMARK  1219  A    between atoms: CG_2162  and  CD_2163
REMARK  1220  A    between atoms: CA_2167  and  C_2168
REMARK  1221  A    between atoms: CA_2174  and  C_2175
REMARK  1222  A    between atoms: N_2180  and  CA_2181
REMARK  1223  A    between atoms: CA_2181  and  C_2182
REMARK  1224  A    between atoms: CA_2181  and  CB_2184
REMARK  1225  A    between atoms: CB_2184  and  OG_2185
REMARK  1226  A    between atoms: N_2186  and  CA_2187
REMARK  1227  A    between atoms: CA_2187  and  C_2188
REMARK  1228  A    between atoms: CA_2187  and  CB_2190
REMARK  1229  A    between atoms: CB_2190  and  CG_2191
REMARK  1230  A    between atoms: N_2200  and  CA_2201
REMARK  1231  A    between atoms: CA_2201  and  C_2202
REMARK  1232  A    between atoms: CA_2201  and  CB_2204
REMARK  1233  A    between atoms: CB_2204  and  CG2_2205
REMARK  1234  A    between atoms: CB_2204  and  CG1_2206
REMARK  1235  A    between atoms: N_2207  and  CA_2208
REMARK  1236  A    between atoms: CA_2208  and  C_2209
REMARK  1237  A    between atoms: CA_2208  and  CB_2211
REMARK  1238  A    between atoms: CB_2211  and  OG1_2212
REMARK  1239  A    between atoms: CB_2211  and  CG2_2213
REMARK  1240  A    between atoms: N_2214  and  CA_2215
REMARK  1241  A    between atoms: CA_2215  and  C_2216
REMARK  1242  A    between atoms: CA_2215  and  CB_2218
REMARK  1243  A    between atoms: CB_2218  and  CG_2219
REMARK  1244  A    between atoms: CG_2219  and  CD_2220
REMARK  1245  A    between atoms: N_2223  and  CA_2224
REMARK  1246  A    between atoms: CA_2224  and  C_2225
REMARK  1247  A    between atoms: CA_2224  and  CB_2227
REMARK  1248  A    between atoms: CB_2227  and  CG_2228
REMARK  1249  A    between atoms: CG_2228  and  SD_2229
REMARK  1250  A    between atoms: SD_2229  and  CE_2230
REMARK  1251  A    between atoms: N_2231  and  CA_2232
REMARK  1252  A    between atoms: CA_2232  and  C_2233
REMARK  1253  A    between atoms: CA_2232  and  CB_2235
REMARK  1254  A    between atoms: CB_2235  and  CG_2236
REMARK  1255  A    between atoms: CG_2236  and  CD1_2237
REMARK  1256  A    between atoms: CG_2236  and  CD2_2238
REMARK  1257  A    between atoms: N_2239  and  CA_2240
REMARK  1258  A    between atoms: CA_2240  and  C_2241
REMARK  1259  A    between atoms: CA_2240  and  CB_2243
REMARK  1260  A    between atoms: CB_2243  and  CG_2244
REMARK  1261  A    between atoms: CG_2244  and  CD1_2245
REMARK  1262  A    between atoms: CG_2244  and  CD2_2246
REMARK  1263  A    between atoms: N_2247  and  CA_2248
REMARK  1264  A    between atoms: CA_2248  and  C_2249
REMARK  1265  A    between atoms: CA_2248  and  CB_2251
REMARK  1266  A    between atoms: CB_2251  and  CG_2252
REMARK  1267  A    between atoms: CG_2252  and  CD_2253
REMARK  1268  A    between atoms: N_2256  and  CA_2257
REMARK  1269  A    between atoms: CA_2257  and  C_2258
REMARK  1270  A    between atoms: CA_2257  and  CB_2260
REMARK  1271  A    between atoms: CB_2260  and  CG_2261
REMARK  1272  A    between atoms: CG_2261  and  CD_2262
REMARK  1273  A    between atoms: CD_2262  and  CE_2263
REMARK  1274  A    between atoms: CE_2263  and  NZ_2264
REMARK  1275  A    between atoms: N_2265  and  C_2266
REMARK  1276  A    between atoms: C_2266  and  C_2267
REMARK  1277  A    between atoms: C_2266  and  C_2269
REMARK  1278  A    between atoms: C_2269  and  C_2270
REMARK  1279  A    between atoms: N_2271  and  CA_2272
REMARK  1280  A    between atoms: CA_2272  and  C_2273
REMARK  1281  A    between atoms: CA_2272  and  CB_2275
REMARK  1282  A    between atoms: CB_2275  and  CG_2276
REMARK  1283  A    between atoms: CG_2276  and  CD2_2277
REMARK  1284  A    between atoms: CG_2276  and  CD1_2278
REMARK  1285  A    between atoms: N_2279  and  CA_2280
REMARK  1286  A    between atoms: CA_2280  and  C_2281
REMARK  1287  A    between atoms: CA_2280  and  CB_2283
REMARK  1288  A    between atoms: CB_2283  and  CG_2284
REMARK  1289  A    between atoms: N_2293  and  CA_2294
REMARK  1290  A    between atoms: CA_2294  and  C_2295
REMARK                            x       y       z     vdW  Elec       q    Type
REMARK                         _______ _______ _______ _____ _____    ______ ____
ROOT
ATOM      1  C   UNL     6     -41.549  38.315   6.713  0.00  0.00    +0.007 C 
ATOM      2  C   UNL     6     -42.840  38.741   7.064  0.00  0.00    -0.014 C 
ATOM      3  C   UNL     6     -43.039  38.473   6.472  0.00  0.00    +0.003 C 
ATOM      4  C   UNL     6     -43.154  40.153   6.637  0.00  0.00    +0.003 C 
ATOM      5  C   UNL     6     -43.410  39.809   5.862  0.00  0.00    +0.001 C 
ENDROOT
TORSDOF 0
REMARK  Name = /Users/wangyang/Desktop/Breast_cancer_brain_metastasis/wang_Gene/AIDD/15_Protein_ligand_docking/data_7ztl/protein.pdb
REMARK  1290 active torsions:
REMARK  status: ('A' for Active; 'I' for Inactive)
REMARK    1  A    between atoms: N_1  and  CA_2
REMARK    2  A    between atoms: CA_2  and  C_3
REMARK    3  A    between atoms: N_5  and  CA_6
REMARK    4  A    between atoms: CA_6  and  C_7
REMARK    5  A    between atoms: CA_6  and  CB_9
REMARK    6  A    between atoms: N_10  and  CA_11
REMARK    7  A    between atoms: CA_11  and  C_12
REMARK    8  A    between atoms: CA_11  and  CB_14
REMARK    9  A    between atoms: CB_14  and  CG_15
REMARK   10  A    between atoms: N_24  and  CA_25
REMARK   11  A    between atoms: CA_25  and  C_26
REMARK   12  A    between atoms: CA_25  and  CB_28
REMARK   13  A    between atoms: N_29  and  CA_30
REMARK   14  A    between atoms: CA_30  and  C_31
REMARK   15  A    between atoms: CA_30  and  CB_33
REMARK   16  A    between atoms: CB_33  and  CG_34
REMARK   17  A    between atoms: CG_34  and  CD1_35
REMARK   18  A    between atoms: CG_34  and  CD2_36
REMARK   19  A    between atoms: N_37  and  CA_38
REMARK   20  A    between atoms: CA_38  and  C_39
REMARK   21  A    between atoms: CA_38  and  CB_41
REMARK   22  A    between atoms: CB_41  and  CG_42
REMARK   23  A    between atoms: CG_42  and  CD_43
REMARK   24  A    between atoms: N_46  and  CA_47
REMARK   25  A    between atoms: CA_47  and  C_48
REMARK   26  A    between atoms: CA_47  and  CB_50
REMARK   27  A    between atoms: CB_50  and  CG_51
REMARK   28  A    between atoms: N_54  and  CA_55
REMARK   29  A    between atoms: CA_55  and  C_56
REMARK   30  A    between atoms: CA_55  and  CB_58
REMARK   31  A    between atoms: CB_58  and  CG_59
REMARK   32  A    between atoms: N_65  and  CA_66
REMARK   33  A    between atoms: CA_66  and  C_67
REMARK   34  A    between atoms: CA_66  and  CB_69
REMARK   35  A    between atoms: CB_69  and  CG_70
REMARK   36  A    between atoms: CG_70  and  CD_71
REMARK   37  A    between atoms: N_74  and  CA_75
REMARK   38  A    between atoms: CA_75  and  C_76
REMARK   39  A    between atoms: CA_75  and  CB_78
REMARK   40  A    between atoms: CB_78  and  CG1_79
REMARK   41  A    between atoms: CB_78  and  CG2_80
REMARK   42  A    between atoms: CG1_79  and  CD1_81
REMARK   43  A    between atoms: N_82  and  CA_83
REMARK   44  A    between atoms: CA_83  and  C_84
REMARK   45  A    between atoms: N_86  and  CA_87
REMARK   46  A    between atoms: CA_87  and  C_88
REMARK   47  A    between atoms: CA_87  and  CB_90
REMARK   48  A    between atoms: CB_90  and  CG_91
REMARK   49  A    between atoms: CG_91  and  CD_92
REMARK   50  A    between atoms: CD_92  and  NE_93
REMARK   51  A    between atoms: CA_98  and  C_99
REMARK   52  A    between atoms: N_104  and  CA_105
REMARK   53  A    between atoms: CA_105  and  C_106
REMARK   54  A    between atoms: CA_105  and  CB_108
REMARK   55  A    between atoms: CB_108  and  CG_109
REMARK   56  A    between atoms: CG_109  and  CD1_110
REMARK   57  A    between atoms: CG_109  and  CD2_111
REMARK   58  A    between atoms: N_112  and  CA_113
REMARK   59  A    between atoms: CA_113  and  C_114
REMARK   60  A    between atoms: N_116  and  C_117
REMARK   61  A    between atoms: C_117  and  C_118
REMARK   62  A    between atoms: C_117  and  C_120
REMARK   63  A    between atoms: C_120  and  C_121
REMARK   64  A    between atoms: C_121  and  C_122
REMARK   65  A    between atoms: N_123  and  CA_124
REMARK   66  A    between atoms: CA_124  and  C_125
REMARK   67  A    between atoms: N_127  and  CA_128
REMARK   68  A    between atoms: CA_128  and  C_129
REMARK   69  A    between atoms: CA_128  and  CB_131
REMARK   70  A    between atoms: CB_131  and  CG_132
REMARK   71  A    between atoms: CG_132  and  CD_133
REMARK   72  A    between atoms: CD_133  and  CE_134
REMARK   73  A    between atoms: CE_134  and  NZ_135
REMARK   74  A    between atoms: N_136  and  CA_137
REMARK   75  A    between atoms: CA_137  and  C_138
REMARK   76  A    between atoms: CA_137  and  CB_140
REMARK   77  A    between atoms: CB_140  and  CG_141
REMARK   78  A    between atoms: N_147  and  CA_148
REMARK   79  A    between atoms: CA_148  and  C_149
REMARK   80  A    between atoms: N_151  and  CA_152
REMARK   81  A    between atoms: CA_152  and  C_153
REMARK   82  A    between atoms: CA_152  and  CB_155
REMARK   83  A    between atoms: CB_155  and  CG_156
REMARK   84  A    between atoms: N_159  and  CA_160
REMARK   85  A    between atoms: CA_160  and  C_161
REMARK   86  A    between atoms: CA_160  and  CB_163
REMARK   87  A    between atoms: CB_163  and  CG1_164
REMARK   88  A    between atoms: CB_163  and  CG2_165
REMARK   89  A    between atoms: N_166  and  CA_167
REMARK   90  A    between atoms: CA_167  and  C_168
REMARK   91  A    between atoms: CA_167  and  CB_170
REMARK   92  A    between atoms: CB_170  and  CG_171
REMARK   93  A    between atoms: CZ_176  and  OH_177
REMARK   94  A    between atoms: N_178  and  CA_179
REMARK   95  A    between atoms: CA_179  and  C_180
REMARK   96  A    between atoms: CA_179  and  CB_182
REMARK   97  A    between atoms: CB_182  and  CG_183
REMARK   98  A    between atoms: CG_183  and  CD1_184
REMARK   99  A    between atoms: CG_183  and  CD2_185
REMARK  100  A    between atoms: N_186  and  CA_187
REMARK  101  A    between atoms: CA_187  and  C_188
REMARK  102  A    between atoms: CA_187  and  CB_190
REMARK  103  A    between atoms: N_191  and  CA_192
REMARK  104  A    between atoms: CA_192  and  C_193
REMARK  105  A    between atoms: CA_192  and  CB_195
REMARK  106  A    between atoms: CB_195  and  CG_196
REMARK  107  A    between atoms: CG_196  and  CD_197
REMARK  108  A    between atoms: CD_197  and  NE_198
REMARK  109  A    between atoms: N_202  and  CA_203
REMARK  110  A    between atoms: CA_203  and  C_204
REMARK  111  A    between atoms: CA_203  and  CB_206
REMARK  112  A    between atoms: CB_206  and  CG_207
REMARK  113  A    between atoms: CG_207  and  CD_208
REMARK  114  A    between atoms: N_211  and  CA_212
REMARK  115  A    between atoms: CA_212  and  C_213
REMARK  116  A    between atoms: CA_212  and  CB_215
REMARK  117  A    between atoms: CB_215  and  CG_216
REMARK  118  A    between atoms: CG_216  and  CD_217
REMARK  119  A    between atoms: CD_217  and  CE_218
REMARK  120  A    between atoms: CE_218  and  NZ_219
REMARK  121  A    between atoms: N_220  and  CA_221
REMARK  122  A    between atoms: CA_221  and  C_222
REMARK  123  A    between atoms: CA_221  and  CB_224
REMARK  124  A    between atoms: N_225  and  CA_226
REMARK  125  A    between atoms: CA_226  and  C_227
REMARK  126  A    between atoms: CA_226  and  CB_229
REMARK  127  A    between atoms: CB_229  and  OG_230
REMARK  128  A    between atoms: N_231  and  CA_232
REMARK  129  A    between atoms: CA_232  and  C_233
REMARK  130  A    between atoms: CA_232  and  CB_235
REMARK  131  A    between atoms: CB_235  and  CG_236
REMARK  132  A    between atoms: CG_236  and  CD_237
REMARK  133  A    between atoms: CD_237  and  CE_238
REMARK  134  A    between atoms: CE_238  and  NZ_239
REMARK  135  A    between atoms: N_240  and  CA_241
REMARK  136  A    between atoms: CA_241  and  C_242
REMARK  137  A    between atoms: CA_241  and  CB_244
REMARK  138  A    between atoms: CB_244  and  CG_245
REMARK  139  A    between atoms: N_251  and  CA_252
REMARK  140  A    between atoms: CA_252  and  C_253
REMARK  141  A    between atoms: CA_252  and  CB_255
REMARK  142  A    between atoms: CB_255  and  CG1_256
REMARK  143  A    between atoms: CB_255  and  CG2_257
REMARK  144  A    between atoms: CG1_256  and  CD1_258
REMARK  145  A    between atoms: N_259  and  CA_260
REMARK  146  A    between atoms: CA_260  and  C_261
REMARK  147  A    between atoms: CA_260  and  CB_263
REMARK  148  A    between atoms: CB_263  and  CG_264
REMARK  149  A    between atoms: CG_264  and  CD1_265
REMARK  150  A    between atoms: CG_264  and  CD2_266
REMARK  151  A    between atoms: N_267  and  CA_268
REMARK  152  A    between atoms: CA_268  and  C_269
REMARK  153  A    between atoms: CA_268  and  CB_271
REMARK  154  A    between atoms: N_272  and  CA_273
REMARK  155  A    between atoms: CA_273  and  C_274
REMARK  156  A    between atoms: CA_273  and  CB_276
REMARK  157  A    between atoms: CB_276  and  CG_277
REMARK  158  A    between atoms: CG_277  and  CD2_278
REMARK  159  A    between atoms: CG_277  and  CD1_279
REMARK  160  A    between atoms: N_280  and  CA_281
REMARK  161  A    between atoms: CA_281  and  C_282
REMARK  162  A    between atoms: CA_281  and  CB_284
REMARK  163  A    between atoms: CB_284  and  CG_285
REMARK  164  A    between atoms: CG_285  and  CD_286
REMARK  165  A    between atoms: CD_286  and  CE_287
REMARK  166  A    between atoms: CE_287  and  NZ_288
REMARK  167  A    between atoms: N_289  and  CA_290
REMARK  168  A    between atoms: CA_290  and  C_291
REMARK  169  A    between atoms: CA_290  and  CB_293
REMARK  170  A    between atoms: CB_293  and  CG2_294
REMARK  171  A    between atoms: CB_293  and  CG1_295
REMARK  172  A    between atoms: N_296  and  CA_297
REMARK  173  A    between atoms: CA_297  and  C_298
REMARK  174  A    between atoms: CA_297  and  CB_300
REMARK  175  A    between atoms: CB_300  and  CG_301
REMARK  176  A    between atoms: CG_301  and  CD1_302
REMARK  177  A    between atoms: CG_301  and  CD2_303
REMARK  178  A    between atoms: N_304  and  CA_305
REMARK  179  A    between atoms: CA_305  and  C_306
REMARK  180  A    between atoms: CA_305  and  CB_308
REMARK  181  A    between atoms: CB_308  and  CG_309
REMARK  182  A    between atoms: N_315  and  CA_316
REMARK  183  A    between atoms: CA_316  and  C_317
REMARK  184  A    between atoms: CA_316  and  CB_319
REMARK  185  A    between atoms: CB_319  and  CG_320
REMARK  186  A    between atoms: CG_320  and  CD_321
REMARK  187  A    between atoms: CD_321  and  CE_322
REMARK  188  A    between atoms: CE_322  and  NZ_323
REMARK  189  A    between atoms: N_324  and  CA_325
REMARK  190  A    between atoms: CA_325  and  C_326
REMARK  191  A    between atoms: CA_325  and  CB_328
REMARK  192  A    between atoms: N_329  and  CA_330
REMARK  193  A    between atoms: CA_330  and  C_331
REMARK  194  A    between atoms: CA_330  and  CB_333
REMARK  195  A    between atoms: CB_333  and  CG_334
REMARK  196  A    between atoms: CG_334  and  CD_335
REMARK  197  A    between atoms: N_338  and  CA_339
REMARK  198  A    between atoms: CA_339  and  C_340
REMARK  199  A    between atoms: CA_339  and  CB_342
REMARK  200  A    between atoms: CB_342  and  CG_343
REMARK  201  A    between atoms: CG_343  and  CD1_344
REMARK  202  A    between atoms: CG_343  and  CD2_345
REMARK  203  A    between atoms: N_346  and  CA_347
REMARK  204  A    between atoms: CA_347  and  C_348
REMARK  205  A    between atoms: CA_347  and  CB_350
REMARK  206  A    between atoms: CB_350  and  CG_351
REMARK  207  A    between atoms: CG_351  and  CD_352
REMARK  208  A    between atoms: N_355  and  C_356
REMARK  209  A    between atoms: C_356  and  C_357
REMARK  210  A    between atoms: C_356  and  C_359
REMARK  211  A    between atoms: C_359  and  C_360
REMARK  212  A    between atoms: N_361  and  CA_362
REMARK  213  A    between atoms: CA_362  and  C_363
REMARK  214  A    between atoms: CA_362  and  CB_365
REMARK  215  A    between atoms: N_366  and  CA_367
REMARK  216  A    between atoms: CA_367  and  C_368
REMARK  217  A    between atoms: N_370  and  CA_371
REMARK  218  A    between atoms: CA_371  and  C_372
REMARK  219  A    between atoms: CA_371  and  CB_374
REMARK  220  A    between atoms: CB_374  and  CG2_375
REMARK  221  A    between atoms: CB_374  and  CG1_376
REMARK  222  A    between atoms: N_377  and  CA_378
REMARK  223  A    between atoms: CA_378  and  C_379
REMARK  224  A    between atoms: CA_378  and  CB_381
REMARK  225  A    between atoms: CB_381  and  CG_382
REMARK  226  A    between atoms: CG_382  and  CD_383
REMARK  227  A    between atoms: N_386  and  CA_387
REMARK  228  A    between atoms: CA_387  and  C_388
REMARK  229  A    between atoms: CA_387  and  CB_390
REMARK  230  A    between atoms: CB_390  and  CG_391
REMARK  231  A    between atoms: N_396  and  CA_397
REMARK  232  A    between atoms: CA_397  and  C_398
REMARK  233  A    between atoms: CA_397  and  CB_400
REMARK  234  A    between atoms: CB_400  and  CG_401
REMARK  235  A    between atoms: CG_401  and  CD_402
REMARK  236  A    between atoms: N_405  and  CA_406
REMARK  237  A    between atoms: CA_406  and  C_407
REMARK  238  A    between atoms: CA_406  and  CB_409
REMARK  239  A    between atoms: CB_409  and  CG_410
REMARK  240  A    between atoms: CG_410  and  CD2_411
REMARK  241  A    between atoms: CG_410  and  CD1_412
REMARK  242  A    between atoms: N_413  and  CA_414
REMARK  243  A    between atoms: CA_414  and  C_415
REMARK  244  A    between atoms: CA_414  and  CB_417
REMARK  245  A    between atoms: CB_417  and  CG_418
REMARK  246  A    between atoms: CG_418  and  CD_419
REMARK  247  A    between atoms: CD_419  and  NE_420
REMARK  248  A    between atoms: N_424  and  CA_425
REMARK  249  A    between atoms: CA_425  and  C_426
REMARK  250  A    between atoms: CA_425  and  CB_428
REMARK  251  A    between atoms: CB_428  and  CG_429
REMARK  252  A    between atoms: CG_429  and  CD_430
REMARK  253  A    between atoms: CD_430  and  NE_431
REMARK  254  A    between atoms: N_435  and  CA_436
REMARK  255  A    between atoms: CA_436  and  C_437
REMARK  256  A    between atoms: CA_436  and  CB_439
REMARK  257  A    between atoms: CB_439  and  CG_440
REMARK  258  A    between atoms: CG_440  and  CD_441
REMARK  259  A    between atoms: N_444  and  CA_445
REMARK  260  A    between atoms: CA_445  and  C_446
REMARK  261  A    between atoms: CA_445  and  CB_448
REMARK  262  A    between atoms: CB_448  and  CG1_449
REMARK  263  A    between atoms: CB_448  and  CG2_450
REMARK  264  A    between atoms: N_451  and  C_452
REMARK  265  A    between atoms: C_452  and  C_453
REMARK  266  A    between atoms: C_452  and  C_455
REMARK  267  A    between atoms: C_455  and  C_456
REMARK  268  A    between atoms: N_457  and  CA_458
REMARK  269  A    between atoms: CA_458  and  C_459
REMARK  270  A    between atoms: CA_458  and  CB_461
REMARK  271  A    between atoms: CB_461  and  CG1_462
REMARK  272  A    between atoms: CB_461  and  CG2_463
REMARK  273  A    between atoms: CG1_462  and  CD1_464
REMARK  274  A    between atoms: N_465  and  CA_466
REMARK  275  A    between atoms: CA_466  and  C_467
REMARK  276  A    between atoms: CA_466  and  CB_469
REMARK  277  A    between atoms: CB_469  and  CG_470
REMARK  278  A    between atoms: CG_470  and  CD_471
REMARK  279  A    between atoms: N_474  and  C_475
REMARK  280  A    between atoms: C_475  and  C_476
REMARK  281  A    between atoms: C_475  and  C_478
REMARK  282  A    between atoms: C_478  and  O_479
REMARK  283  A    between atoms: N_480  and  C_481
REMARK  284  A    between atoms: C_481  and  C_482
REMARK  285  A    between atoms: C_481  and  C_484
REMARK  286  A    between atoms: C_484  and  C_485
REMARK  287  A    between atoms: N_490  and  C_491
REMARK  288  A    between atoms: C_491  and  C_492
REMARK  289  A    between atoms: C_491  and  C_494
REMARK  290  A    between atoms: C_494  and  C_495
REMARK  291  A    between atoms: C_495  and  C_496
REMARK  292  A    between atoms: C_495  and  C_497
REMARK  293  A    between atoms: N_498  and  C_499
REMARK  294  A    between atoms: C_499  and  C_500
REMARK  295  A    between atoms: C_499  and  C_502
REMARK  296  A    between atoms: C_502  and  C_503
REMARK  297  A    between atoms: C_503  and  C_504
REMARK  298  A    between atoms: C_504  and  N_505
REMARK  299  A    between atoms: N_509  and  C_510
REMARK  300  A    between atoms: C_510  and  C_511
REMARK  301  A    between atoms: C_510  and  C_513
REMARK  302  A    between atoms: C_513  and  C_514
REMARK  303  A    between atoms: C_520  and  C_521
REMARK  304  A    between atoms: N_526  and  C_527
REMARK  305  A    between atoms: C_527  and  C_528
REMARK  306  A    between atoms: C_527  and  C_530
REMARK  307  A    between atoms: C_530  and  C_531
REMARK  308  A    between atoms: N_534  and  C_535
REMARK  309  A    between atoms: C_535  and  C_536
REMARK  310  A    between atoms: C_535  and  C_538
REMARK  311  A    between atoms: C_538  and  C_539
REMARK  312  A    between atoms: C_538  and  C_540
REMARK  313  A    between atoms: C_539  and  C_541
REMARK  314  A    between atoms: N_542  and  C_543
REMARK  315  A    between atoms: C_543  and  C_544
REMARK  316  A    between atoms: C_543  and  C_546
REMARK  317  A    between atoms: C_546  and  C_547
REMARK  318  A    between atoms: C_547  and  C_548
REMARK  319  A    between atoms: C_547  and  C_549
REMARK  320  A    between atoms: N_550  and  C_551
REMARK  321  A    between atoms: C_551  and  C_552
REMARK  322  A    between atoms: C_551  and  C_554
REMARK  323  A    between atoms: C_554  and  C_555
REMARK  324  A    between atoms: C_555  and  C_556
REMARK  325  A    between atoms: C_556  and  N_557
REMARK  326  A    between atoms: N_561  and  C_562
REMARK  327  A    between atoms: C_562  and  C_567
REMARK  328  A    between atoms: C_563  and  C_564
REMARK  329  A    between atoms: C_568  and  C_569
REMARK  330  A    between atoms: C_568  and  C_571
REMARK  331  A    between atoms: C_569  and  C_572
REMARK  332  A    between atoms: C_569  and  C_573
REMARK  333  A    between atoms: C_570  and  C_573
REMARK  334  A    between atoms: N_574  and  CA_575
REMARK  335  A    between atoms: CA_575  and  C_576
REMARK  336  A    between atoms: CA_575  and  CB_578
REMARK  337  A    between atoms: CB_578  and  CG_579
REMARK  338  A    between atoms: CZ_584  and  OH_585
REMARK  339  A    between atoms: N_586  and  CA_587
REMARK  340  A    between atoms: CA_587  and  C_588
REMARK  341  A    between atoms: N_590  and  CA_591
REMARK  342  A    between atoms: CA_591  and  C_592
REMARK  343  A    between atoms: CA_591  and  CB_594
REMARK  344  A    between atoms: CB_594  and  CG_595
REMARK  345  A    between atoms: CZ_600  and  OH_601
REMARK  346  A    between atoms: N_602  and  CA_603
REMARK  347  A    between atoms: CA_603  and  C_604
REMARK  348  A    between atoms: CA_603  and  CB_606
REMARK  349  A    between atoms: CB_606  and  CG_607
REMARK  350  A    between atoms: N_613  and  CA_614
REMARK  351  A    between atoms: CA_614  and  C_615
REMARK  352  A    between atoms: CA_614  and  CB_617
REMARK  353  A    between atoms: CB_617  and  CG_618
REMARK  354  A    between atoms: N_623  and  CA_624
REMARK  355  A    between atoms: CA_624  and  C_625
REMARK  356  A    between atoms: CA_624  and  CB_627
REMARK  357  A    between atoms: CB_627  and  CG_628
REMARK  358  A    between atoms: N_631  and  CA_632
REMARK  359  A    between atoms: CA_632  and  C_633
REMARK  360  A    between atoms: CA_632  and  CB_635
REMARK  361  A    between atoms: N_636  and  CA_637
REMARK  362  A    between atoms: CA_637  and  C_638
REMARK  363  A    between atoms: CA_637  and  CB_640
REMARK  364  A    between atoms: CB_640  and  OG1_641
REMARK  365  A    between atoms: CB_640  and  CG2_642
REMARK  366  A    between atoms: N_643  and  CA_644
REMARK  367  A    between atoms: CA_644  and  C_645
REMARK  368  A    between atoms: CA_644  and  CB_647
REMARK  369  A    between atoms: CB_647  and  CG_648
REMARK  370  A    between atoms: CG_648  and  CD_649
REMARK  371  A    between atoms: CD_649  and  NE_650
REMARK  372  A    between atoms: N_654  and  CA_655
REMARK  373  A    between atoms: CA_655  and  C_656
REMARK  374  A    between atoms: CA_655  and  CB_658
REMARK  375  A    between atoms: CB_658  and  CG1_659
REMARK  376  A    between atoms: CB_658  and  CG2_660
REMARK  377  A    between atoms: N_661  and  CA_662
REMARK  378  A    between atoms: CA_662  and  C_663
REMARK  379  A    between atoms: CA_662  and  CB_665
REMARK  380  A    between atoms: CB_665  and  CG_666
REMARK  381  A    between atoms: CZ_671  and  OH_672
REMARK  382  A    between atoms: N_673  and  CA_674
REMARK  383  A    between atoms: CA_674  and  C_675
REMARK  384  A    between atoms: CA_674  and  CB_677
REMARK  385  A    between atoms: CB_677  and  CG_678
REMARK  386  A    between atoms: CG_678  and  CD2_679
REMARK  387  A    between atoms: CG_678  and  CD1_680
REMARK  388  A    between atoms: N_681  and  CA_682
REMARK  389  A    between atoms: CA_682  and  C_683
REMARK  390  A    between atoms: CA_682  and  CB_685
REMARK  391  A    between atoms: CB_685  and  CG1_686
REMARK  392  A    between atoms: CB_685  and  CG2_687
REMARK  393  A    between atoms: CG1_686  and  CD1_688
REMARK  394  A    between atoms: N_689  and  CA_690
REMARK  395  A    between atoms: CA_690  and  C_691
REMARK  396  A    between atoms: CA_690  and  CB_693
REMARK  397  A    between atoms: CB_693  and  CG_694
REMARK  398  A    between atoms: CG_694  and  CD2_695
REMARK  399  A    between atoms: CG_694  and  CD1_696
REMARK  400  A    between atoms: N_697  and  CA_698
REMARK  401  A    between atoms: CA_698  and  C_699
REMARK  402  A    between atoms: CA_698  and  CB_701
REMARK  403  A    between atoms: CB_701  and  CG_702
REMARK  404  A    between atoms: CG_702  and  CD_703
REMARK  405  A    between atoms: N_706  and  CA_707
REMARK  406  A    between atoms: CA_707  and  C_708
REMARK  407  A    between atoms: CA_707  and  CB_710
REMARK  408  A    between atoms: CB_710  and  CG_711
REMARK  409  A    between atoms: CZ_716  and  OH_717
REMARK  410  A    between atoms: N_718  and  CA_719
REMARK  411  A    between atoms: CA_719  and  C_720
REMARK  412  A    between atoms: CA_719  and  CB_722
REMARK  413  A    between atoms: CA_724  and  C_725
REMARK  414  A    between atoms: N_730  and  CA_731
REMARK  415  A    between atoms: CA_731  and  C_732
REMARK  416  A    between atoms: CA_731  and  CB_734
REMARK  417  A    between atoms: CB_734  and  CG_735
REMARK  418  A    between atoms: CG_735  and  CD1_736
REMARK  419  A    between atoms: CG_735  and  CD2_737
REMARK  420  A    between atoms: N_738  and  CA_739
REMARK  421  A    between atoms: CA_739  and  C_740
REMARK  422  A    between atoms: N_742  and  CA_743
REMARK  423  A    between atoms: CA_743  and  C_744
REMARK  424  A    between atoms: CA_743  and  CB_746
REMARK  425  A    between atoms: CB_746  and  OG1_747
REMARK  426  A    between atoms: CB_746  and  CG2_748
REMARK  427  A    between atoms: N_749  and  CA_750
REMARK  428  A    between atoms: CA_750  and  C_751
REMARK  429  A    between atoms: CA_750  and  CB_753
REMARK  430  A    between atoms: CB_753  and  CG2_754
REMARK  431  A    between atoms: CB_753  and  CG1_755
REMARK  432  A    between atoms: N_756  and  CA_757
REMARK  433  A    between atoms: CA_757  and  C_758
REMARK  434  A    between atoms: CA_757  and  CB_760
REMARK  435  A    between atoms: CB_760  and  CG_761
REMARK  436  A    between atoms: CZ_766  and  OH_767
REMARK  437  A    between atoms: N_768  and  C_769
REMARK  438  A    between atoms: C_769  and  C_770
REMARK  439  A    between atoms: C_769  and  C_772
REMARK  440  A    between atoms: C_772  and  C_773
REMARK  441  A    between atoms: N_774  and  CA_775
REMARK  442  A    between atoms: CA_775  and  C_776
REMARK  443  A    between atoms: CA_775  and  CB_778
REMARK  444  A    between atoms: CB_778  and  CG_779
REMARK  445  A    between atoms: CG_779  and  CD_780
REMARK  446  A    between atoms: N_783  and  CA_784
REMARK  447  A    between atoms: CA_784  and  C_785
REMARK  448  A    between atoms: CA_784  and  CB_787
REMARK  449  A    between atoms: CB_787  and  CG_788
REMARK  450  A    between atoms: CG_788  and  CD2_789
REMARK  451  A    between atoms: CG_788  and  CD1_790
REMARK  452  A    between atoms: N_791  and  CA_792
REMARK  453  A    between atoms: CA_792  and  C_793
REMARK  454  A    between atoms: CA_792  and  CB_795
REMARK  455  A    between atoms: CB_795  and  CG_796
REMARK  456  A    between atoms: CG_796  and  CD_797
REMARK  457  A    between atoms: N_800  and  CA_801
REMARK  458  A    between atoms: CA_801  and  C_802
REMARK  459  A    between atoms: CA_801  and  CB_804
REMARK  460  A    between atoms: CB_804  and  CG_805
REMARK  461  A    between atoms: CG_805  and  CD_806
REMARK  462  A    between atoms: CD_806  and  CE_807
REMARK  463  A    between atoms: CE_807  and  NZ_808
REMARK  464  A    between atoms: N_809  and  CA_810
REMARK  465  A    between atoms: CA_810  and  C_811
REMARK  466  A    between atoms: CA_810  and  CB_813
REMARK  467  A    between atoms: CB_813  and  CG_814
REMARK  468  A    between atoms: CG_814  and  CD1_815
REMARK  469  A    between atoms: CG_814  and  CD2_816
REMARK  470  A    between atoms: N_817  and  CA_818
REMARK  471  A    between atoms: CA_818  and  C_819
REMARK  472  A    between atoms: CA_818  and  CB_821
REMARK  473  A    between atoms: CB_821  and  OG_822
REMARK  474  A    between atoms: N_823  and  CA_824
REMARK  475  A    between atoms: CA_824  and  C_825
REMARK  476  A    between atoms: CA_824  and  CB_827
REMARK  477  A    between atoms: CB_827  and  CG_828
REMARK  478  A    between atoms: CG_828  and  CD_829
REMARK  479  A    between atoms: CD_829  and  CE_830
REMARK  480  A    between atoms: CE_830  and  NZ_831
REMARK  481  A    between atoms: N_832  and  CA_833
REMARK  482  A    between atoms: CA_833  and  C_834
REMARK  483  A    between atoms: CA_833  and  CB_836
REMARK  484  A    between atoms: CB_836  and  CG_837
REMARK  485  A    between atoms: N_843  and  CA_844
REMARK  486  A    between atoms: CA_844  and  C_845
REMARK  487  A    between atoms: CA_844  and  CB_847
REMARK  488  A    between atoms: CB_847  and  CG_848
REMARK  489  A    between atoms: N_851  and  CA_852
REMARK  490  A    between atoms: CA_852  and  C_853
REMARK  491  A    between atoms: CA_852  and  CB_855
REMARK  492  A    between atoms: CB_855  and  CG_856
REMARK  493  A    between atoms: CG_856  and  CD_857
REMARK  494  A    between atoms: N_860  and  CA_861
REMARK  495  A    between atoms: CA_861  and  C_862
REMARK  496  A    between atoms: CA_861  and  CB_864
REMARK  497  A    between atoms: CB_864  and  CG_865
REMARK  498  A    between atoms: CG_865  and  CD_866
REMARK  499  A    between atoms: N_869  and  CA_870
REMARK  500  A    between atoms: CA_870  and  C_871
REMARK  501  A    between atoms: CA_870  and  CB_873
REMARK  502  A    between atoms: CB_873  and  CG_874
REMARK  503  A    between atoms: CG_874  and  CD_875
REMARK  504  A    between atoms: CD_875  and  NE_876
REMARK  505  A    between atoms: N_880  and  CA_881
REMARK  506  A    between atoms: CA_881  and  C_882
REMARK  507  A    between atoms: CA_881  and  CB_884
REMARK  508  A    between atoms: CB_884  and  OG1_885
REMARK  509  A    between atoms: CB_884  and  CG2_886
REMARK  510  A    between atoms: N_887  and  CA_888
REMARK  511  A    between atoms: CA_888  and  C_889
REMARK  512  A    between atoms: CA_888  and  CB_891
REMARK  513  A    between atoms: N_892  and  CA_893
REMARK  514  A    between atoms: CA_893  and  C_894
REMARK  515  A    between atoms: CA_893  and  CB_896
REMARK  516  A    between atoms: CB_896  and  OG1_897
REMARK  517  A    between atoms: CB_896  and  CG2_898
REMARK  518  A    between atoms: N_899  and  CA_900
REMARK  519  A    between atoms: CA_900  and  C_901
REMARK  520  A    between atoms: CA_900  and  CB_903
REMARK  521  A    between atoms: CB_903  and  CG_904
REMARK  522  A    between atoms: CZ_909  and  OH_910
REMARK  523  A    between atoms: N_911  and  CA_912
REMARK  524  A    between atoms: CA_912  and  C_913
REMARK  525  A    between atoms: CA_912  and  CB_915
REMARK  526  A    between atoms: CB_915  and  CG1_916
REMARK  527  A    between atoms: CB_915  and  CG2_917
REMARK  528  A    between atoms: CG1_916  and  CD1_918
REMARK  529  A    between atoms: N_919  and  CA_920
REMARK  530  A    between atoms: CA_920  and  C_921
REMARK  531  A    between atoms: CA_920  and  CB_923
REMARK  532  A    between atoms: CB_923  and  OG1_924
REMARK  533  A    between atoms: CB_923  and  CG2_925
REMARK  534  A    between atoms: N_926  and  CA_927
REMARK  535  A    between atoms: CA_927  and  C_928
REMARK  536  A    between atoms: CA_927  and  CB_930
REMARK  537  A    between atoms: CB_930  and  CG_931
REMARK  538  A    between atoms: CG_931  and  CD_932
REMARK  539  A    between atoms: N_935  and  CA_936
REMARK  540  A    between atoms: CA_936  and  C_937
REMARK  541  A    between atoms: CA_936  and  CB_939
REMARK  542  A    between atoms: CB_939  and  CG_940
REMARK  543  A    between atoms: CG_940  and  CD2_941
REMARK  544  A    between atoms: CG_940  and  CD1_942
REMARK  545  A    between atoms: N_943  and  CA_944
REMARK  546  A    between atoms: CA_944  and  C_945
REMARK  547  A    between atoms: CA_944  and  CB_947
REMARK  548  A    between atoms: N_948  and  CA_949
REMARK  549  A    between atoms: CA_949  and  C_950
REMARK  550  A    between atoms: CA_949  and  CB_952
REMARK  551  A    between atoms: CB_952  and  CG_953
REMARK  552  A    between atoms: N_956  and  CA_957
REMARK  553  A    between atoms: CA_957  and  C_958
REMARK  554  A    between atoms: CA_957  and  CB_960
REMARK  555  A    between atoms: N_961  and  CA_962
REMARK  556  A    between atoms: CA_962  and  C_963
REMARK  557  A    between atoms: CA_962  and  CB_965
REMARK  558  A    between atoms: CB_965  and  CG_966
REMARK  559  A    between atoms: CG_966  and  CD2_967
REMARK  560  A    between atoms: CG_966  and  CD1_968
REMARK  561  A    between atoms: N_969  and  CA_970
REMARK  562  A    between atoms: CA_970  and  C_971
REMARK  563  A    between atoms: CA_970  and  CB_973
REMARK  564  A    between atoms: CB_973  and  OG_974
REMARK  565  A    between atoms: N_975  and  CA_976
REMARK  566  A    between atoms: CA_976  and  C_977
REMARK  567  A    between atoms: CA_976  and  CB_979
REMARK  568  A    between atoms: CB_979  and  CG_980
REMARK  569  A    between atoms: CZ_985  and  OH_986
REMARK  570  A    between atoms: N_987  and  CA_988
REMARK  571  A    between atoms: CA_988  and  C_989
REMARK  572  A    between atoms: CA_988  and  CB_991
REMARK  573  A    between atoms: CB_991  and  SG_992
REMARK  574  A    between atoms: N_993  and  CA_994
REMARK  575  A    between atoms: CA_994  and  C_995
REMARK  576  A    between atoms: CA_994  and  CB_997
REMARK  577  A    between atoms: CB_997  and  CG_998
REMARK  578  A    between atoms: N_1003  and  C_1004
REMARK  579  A    between atoms: C_1004  and  C_1005
REMARK  580  A    between atoms: C_1004  and  C_1007
REMARK  581  A    between atoms: C_1007  and  O_1008
REMARK  582  A    between atoms: N_1009  and  C_1010
REMARK  583  A    between atoms: C_1010  and  C_1011
REMARK  584  A    between atoms: C_1010  and  C_1013
REMARK  585  A    between atoms: C_1013  and  C_1014
REMARK  586  A    between atoms: C_1014  and  C_1015
REMARK  587  A    between atoms: C_1015  and  C_1016
REMARK  588  A    between atoms: C_1016  and  N_1017
REMARK  589  A    between atoms: N_1018  and  C_1019
REMARK  590  A    between atoms: C_1020  and  C_1021
REMARK  591  A    between atoms: C_1020  and  C_1024
REMARK  592  A    between atoms: C_1023  and  C_1026
REMARK  593  A    between atoms: C_1025  and  C_1026
REMARK  594  A    between atoms: C_1027  and  N_1029
REMARK  595  A    between atoms: C_1028  and  N_1030
REMARK  596  A    between atoms: N_1037  and  C_1038
REMARK  597  A    between atoms: C_1038  and  C_1039
REMARK  598  A    between atoms: C_1038  and  C_1041
REMARK  599  A    between atoms: C_1041  and  C_1042
REMARK  600  A    between atoms: C_1041  and  C_1043
REMARK  601  A    between atoms: N_1044  and  C_1045
REMARK  602  A    between atoms: C_1045  and  C_1046
REMARK  603  A    between atoms: C_1045  and  C_1048
REMARK  604  A    between atoms: C_1048  and  C_1049
REMARK  605  A    between atoms: C_1048  and  C_1050
REMARK  606  A    between atoms: C_1049  and  C_1051
REMARK  607  A    between atoms: N_1052  and  C_1053
REMARK  608  A    between atoms: C_1053  and  C_1054
REMARK  609  A    between atoms: C_1053  and  C_1056
REMARK  610  A    between atoms: C_1056  and  C_1057
REMARK  611  A    between atoms: N_1062  and  C_1063
REMARK  612  A    between atoms: C_1063  and  C_1064
REMARK  613  A    between atoms: C_1063  and  C_1066
REMARK  614  A    between atoms: C_1066  and  C_1067
REMARK  615  A    between atoms: C_1067  and  C_1068
REMARK  616  A    between atoms: C_1068  and  N_1069
REMARK  617  A    between atoms: N_1073  and  C_1074
REMARK  618  A    between atoms: C_1074  and  C_1077
REMARK  619  A    between atoms: C_1077  and  C_1078
REMARK  620  A    between atoms: N_1081  and  C_1084
REMARK  621  A    between atoms: C_1083  and  C_1085
REMARK  622  A    between atoms: C_1085  and  C_1086
REMARK  623  A    between atoms: C_1085  and  O_1087
REMARK  624  A    between atoms: C_1085  and  N_1097
REMARK  625  A    between atoms: C_1089  and  C_1094
REMARK  626  A    between atoms: C_1090  and  C_1091
REMARK  627  A    between atoms: C_1093  and  C_1094
REMARK  628  A    between atoms: C_1098  and  C_1099
REMARK  629  A    between atoms: C_1098  and  C_1101
REMARK  630  A    between atoms: C_1101  and  C_1102
REMARK  631  A    between atoms: C_1102  and  C_1103
REMARK  632  A    between atoms: C_1103  and  C_1104
REMARK  633  A    between atoms: C_1104  and  N_1105
REMARK  634  A    between atoms: C_1107  and  C_1108
REMARK  635  A    between atoms: N_1113  and  CA_1114
REMARK  636  A    between atoms: CA_1114  and  C_1115
REMARK  637  A    between atoms: CA_1114  and  CB_1117
REMARK  638  A    between atoms: CB_1117  and  CG_1118
REMARK  639  A    between atoms: CG_1118  and  CD_1119
REMARK  640  A    between atoms: N_1122  and  CA_1123
REMARK  641  A    between atoms: CA_1123  and  C_1124
REMARK  642  A    between atoms: CA_1123  and  CB_1126
REMARK  643  A    between atoms: CB_1126  and  CG_1127
REMARK  644  A    between atoms: N_1130  and  CA_1131
REMARK  645  A    between atoms: CA_1131  and  C_1132
REMARK  646  A    between atoms: CA_1131  and  CB_1134
REMARK  647  A    between atoms: CB_1134  and  CG_1135
REMARK  648  A    between atoms: CG_1135  and  CD2_1136
REMARK  649  A    between atoms: CG_1135  and  CD1_1137
REMARK  650  A    between atoms: N_1138  and  CA_1139
REMARK  651  A    between atoms: CA_1139  and  C_1140
REMARK  652  A    between atoms: CA_1139  and  CB_1142
REMARK  653  A    between atoms: CB_1142  and  CG_1143
REMARK  654  A    between atoms: CG_1143  and  CD1_1144
REMARK  655  A    between atoms: CG_1143  and  CD2_1145
REMARK  656  A    between atoms: N_1146  and  CA_1147
REMARK  657  A    between atoms: CA_1147  and  C_1148
REMARK  658  A    between atoms: CA_1147  and  CB_1150
REMARK  659  A    between atoms: CB_1150  and  CG_1151
REMARK  660  A    between atoms: CG_1151  and  CD2_1152
REMARK  661  A    between atoms: CG_1151  and  CD1_1153
REMARK  662  A    between atoms: N_1154  and  CA_1155
REMARK  663  A    between atoms: CA_1155  and  C_1156
REMARK  664  A    between atoms: N_1158  and  CA_1159
REMARK  665  A    between atoms: CA_1159  and  C_1160
REMARK  666  A    between atoms: CA_1159  and  CB_1162
REMARK  667  A    between atoms: CB_1162  and  OG_1163
REMARK  668  A    between atoms: N_1164  and  CA_1165
REMARK  669  A    between atoms: CA_1165  and  C_1166
REMARK  670  A    between atoms: CA_1165  and  CB_1168
REMARK  671  A    between atoms: N_1169  and  CA_1170
REMARK  672  A    between atoms: CA_1170  and  C_1171
REMARK  673  A    between atoms: N_1173  and  CA_1174
REMARK  674  A    between atoms: CA_1174  and  C_1175
REMARK  675  A    between atoms: CA_1174  and  CB_1177
REMARK  676  A    between atoms: CB_1177  and  CG_1178
REMARK  677  A    between atoms: CG_1178  and  CD_1179
REMARK  678  A    between atoms: N_1182  and  CA_1183
REMARK  679  A    between atoms: CA_1183  and  C_1184
REMARK  680  A    between atoms: CA_1183  and  CB_1186
REMARK  681  A    between atoms: CB_1186  and  CG_1187
REMARK  682  A    between atoms: CG_1187  and  CD2_1188
REMARK  683  A    between atoms: CG_1187  and  CD1_1189
REMARK  684  A    between atoms: N_1190  and  CA_1191
REMARK  685  A    between atoms: CA_1191  and  C_1192
REMARK  686  A    between atoms: CA_1191  and  CB_1194
REMARK  687  A    between atoms: CB_1194  and  CG_1195
REMARK  688  A    between atoms: CG_1195  and  CD_1196
REMARK  689  A    between atoms: CD_1196  and  CE_1197
REMARK  690  A    between atoms: CE_1197  and  NZ_1198
REMARK  691  A    between atoms: N_1199  and  CA_1200
REMARK  692  A    between atoms: CA_1200  and  C_1201
REMARK  693  A    between atoms: CA_1200  and  CB_1203
REMARK  694  A    between atoms: CB_1203  and  CG1_1204
REMARK  695  A    between atoms: CB_1203  and  CG2_1205
REMARK  696  A    between atoms: CG1_1204  and  CD1_1206
REMARK  697  A    between atoms: N_1207  and  CA_1208
REMARK  698  A    between atoms: CA_1208  and  C_1209
REMARK  699  A    between atoms: CA_1208  and  CB_1211
REMARK  700  A    between atoms: N_1212  and  CA_1213
REMARK  701  A    between atoms: CA_1213  and  C_1214
REMARK  702  A    between atoms: CA_1213  and  CB_1216
REMARK  703  A    between atoms: CB_1216  and  CG_1217
REMARK  704  A    between atoms: N_1220  and  CA_1221
REMARK  705  A    between atoms: CA_1221  and  C_1222
REMARK  706  A    between atoms: CA_1221  and  CB_1224
REMARK  707  A    between atoms: CB_1224  and  CG_1225
REMARK  708  A    between atoms: N_1231  and  CA_1232
REMARK  709  A    between atoms: CA_1232  and  C_1233
REMARK  710  A    between atoms: N_1235  and  CA_1236
REMARK  711  A    between atoms: CA_1236  and  C_1237
REMARK  712  A    between atoms: CA_1236  and  CB_1239
REMARK  713  A    between atoms: CB_1239  and  CG_1240
REMARK  714  A    between atoms: N_1249  and  CA_1250
REMARK  715  A    between atoms: CA_1250  and  C_1251
REMARK  716  A    between atoms: CA_1250  and  CB_1253
REMARK  717  A    between atoms: CB_1253  and  OG_1254
REMARK  718  A    between atoms: N_1255  and  CA_1256
REMARK  719  A    between atoms: CA_1256  and  C_1257
REMARK  720  A    between atoms: CA_1256  and  CB_1259
REMARK  721  A    between atoms: CB_1259  and  CG2_1260
REMARK  722  A    between atoms: CB_1259  and  CG1_1261
REMARK  723  A    between atoms: N_1262  and  CA_1263
REMARK  724  A    between atoms: CA_1263  and  C_1264
REMARK  725  A    between atoms: CA_1263  and  CB_1266
REMARK  726  A    between atoms: CB_1266  and  CG_1267
REMARK  727  A    between atoms: N_1272  and  CA_1273
REMARK  728  A    between atoms: CA_1273  and  C_1274
REMARK  729  A    between atoms: CA_1273  and  CB_1276
REMARK  730  A    between atoms: CA_1278  and  C_1279
REMARK  731  A    between atoms: N_1284  and  CA_1285
REMARK  732  A    between atoms: CA_1285  and  C_1286
REMARK  733  A    between atoms: CA_1285  and  CB_1288
REMARK  734  A    between atoms: CB_1288  and  OG_1289
REMARK  735  A    between atoms: N_1290  and  CA_1291
REMARK  736  A    between atoms: CA_1291  and  C_1292
REMARK  737  A    between atoms: CA_1291  and  CB_1294
REMARK  738  A    between atoms: CB_1294  and  OG_1295
REMARK  739  A    between atoms: N_1296  and  C_1297
REMARK  740  A    between atoms: C_1297  and  C_1298
REMARK  741  A    between atoms: C_1297  and  C_1300
REMARK  742  A    between atoms: C_1300  and  C_1301
REMARK  743  A    between atoms: C_1301  and  C_1302
REMARK  744  A    between atoms: N_1303  and  CA_1304
REMARK  745  A    between atoms: CA_1304  and  C_1305
REMARK  746  A    between atoms: CA_1304  and  CB_1307
REMARK  747  A    between atoms: CB_1307  and  CG_1308
REMARK  748  A    between atoms: CG_1308  and  CD_1309
REMARK  749  A    between atoms: CD_1309  and  NE_1310
REMARK  750  A    between atoms: N_1314  and  CA_1315
REMARK  751  A    between atoms: CA_1315  and  C_1316
REMARK  752  A    between atoms: CA_1315  and  CB_1318
REMARK  753  A    between atoms: CB_1318  and  OG1_1319
REMARK  754  A    between atoms: CB_1318  and  CG2_1320
REMARK  755  A    between atoms: N_1321  and  C_1322
REMARK  756  A    between atoms: C_1322  and  C_1323
REMARK  757  A    between atoms: C_1322  and  C_1325
REMARK  758  A    between atoms: C_1325  and  C_1326
REMARK  759  A    between atoms: C_1326  and  C_1327
REMARK  760  A    between atoms: C_1326  and  C_1328
REMARK  761  A    between atoms: N_1329  and  C_1330
REMARK  762  A    between atoms: C_1330  and  C_1331
REMARK  763  A    between atoms: C_1330  and  C_1333
REMARK  764  A    between atoms: N_1334  and  C_1335
REMARK  765  A    between atoms: C_1335  and  C_1336
REMARK  766  A    between atoms: N_1338  and  C_1339
REMARK  767  A    between atoms: C_1339  and  C_1340
REMARK  768  A    between atoms: C_1339  and  C_1342
REMARK  769  A    between atoms: C_1342  and  O_1343
REMARK  770  A    between atoms: C_1342  and  C_1344
REMARK  771  A    between atoms: N_1345  and  C_1346
REMARK  772  A    between atoms: C_1346  and  C_1347
REMARK  773  A    between atoms: C_1346  and  C_1349
REMARK  774  A    between atoms: C_1349  and  C_1350
REMARK  775  A    between atoms: C_1350  and  C_1351
REMARK  776  A    between atoms: C_1350  and  C_1352
REMARK  777  A    between atoms: N_1353  and  C_1354
REMARK  778  A    between atoms: C_1354  and  C_1355
REMARK  779  A    between atoms: C_1354  and  C_1357
REMARK  780  A    between atoms: C_1357  and  C_1358
REMARK  781  A    between atoms: N_1361  and  C_1362
REMARK  782  A    between atoms: C_1362  and  C_1363
REMARK  783  A    between atoms: C_1362  and  C_1365
REMARK  784  A    between atoms: C_1365  and  C_1366
REMARK  785  A    between atoms: C_1371  and  O_1372
REMARK  786  A    between atoms: N_1373  and  C_1374
REMARK  787  A    between atoms: C_1374  and  C_1375
REMARK  788  A    between atoms: C_1374  and  C_1377
REMARK  789  A    between atoms: C_1377  and  C_1378
REMARK  790  A    between atoms: C_1378  and  C_1379
REMARK  791  A    between atoms: C_1378  and  C_1380
REMARK  792  A    between atoms: C_1382  and  C_1383
REMARK  793  A    between atoms: C_1389  and  C_1390
REMARK  794  A    between atoms: N_1395  and  C_1396
REMARK  795  A    between atoms: C_1396  and  C_1399
REMARK  796  A    between atoms: C_1399  and  C_1400
REMARK  797  A    between atoms: C_1400  and  C_1401
REMARK  798  A    between atoms: N_1405  and  C_1406
REMARK  799  A    between atoms: C_1407  and  C_1412
REMARK  800  A    between atoms: C_1408  and  O_1410
REMARK  801  A    between atoms: C_1409  and  O_1411
REMARK  802  A    between atoms: O_1410  and  O_1411
REMARK  803  A    between atoms: C_1412  and  C_1414
REMARK  804  A    between atoms: C_1413  and  C_1415
REMARK  805  A    between atoms: S_1416  and  C_1418
REMARK  806  A    between atoms: S_1417  and  C_1419
REMARK  807  A    between atoms: C_1418  and  C_1419
REMARK  808  A    between atoms: N_1420  and  CA_1421
REMARK  809  A    between atoms: CA_1421  and  C_1422
REMARK  810  A    between atoms: CA_1421  and  CB_1424
REMARK  811  A    between atoms: CB_1424  and  CG1_1425
REMARK  812  A    between atoms: CB_1424  and  CG2_1426
REMARK  813  A    between atoms: CG1_1425  and  CD1_1427
REMARK  814  A    between atoms: N_1428  and  CA_1429
REMARK  815  A    between atoms: CA_1429  and  C_1430
REMARK  816  A    between atoms: CA_1429  and  CB_1432
REMARK  817  A    between atoms: CB_1432  and  CG_1433
REMARK  818  A    between atoms: CG_1433  and  CD_1434
REMARK  819  A    between atoms: N_1437  and  CA_1438
REMARK  820  A    between atoms: CA_1438  and  C_1439
REMARK  821  A    between atoms: N_1441  and  CA_1442
REMARK  822  A    between atoms: CA_1442  and  C_1443
REMARK  823  A    between atoms: CA_1442  and  CB_1445
REMARK  824  A    between atoms: CB_1445  and  CG_1446
REMARK  825  A    between atoms: CG_1446  and  CD_1447
REMARK  826  A    between atoms: CD_1447  and  NE_1448
REMARK  827  A    between atoms: N_1452  and  C_1453
REMARK  828  A    between atoms: C_1453  and  C_1454
REMARK  829  A    between atoms: C_1453  and  C_1456
REMARK  830  A    between atoms: C_1456  and  C_1457
REMARK  831  A    between atoms: C_1457  and  S_1458
REMARK  832  A    between atoms: N_1459  and  CA_1460
REMARK  833  A    between atoms: CA_1460  and  C_1461
REMARK  834  A    between atoms: CA_1460  and  CB_1463
REMARK  835  A    between atoms: CB_1463  and  CG_1464
REMARK  836  A    between atoms: N_1469  and  CA_1470
REMARK  837  A    between atoms: CA_1470  and  C_1471
REMARK  838  A    between atoms: CA_1470  and  CB_1473
REMARK  839  A    between atoms: CB_1473  and  CG_1474
REMARK  840  A    between atoms: N_1477  and  CA_1478
REMARK  841  A    between atoms: CA_1478  and  C_1479
REMARK  842  A    between atoms: CA_1478  and  CB_1481
REMARK  843  A    between atoms: CB_1481  and  CG_1482
REMARK  844  A    between atoms: CG_1482  and  CD_1483
REMARK  845  A    between atoms: N_1486  and  CA_1487
REMARK  846  A    between atoms: CA_1487  and  C_1488
REMARK  847  A    between atoms: CA_1487  and  CB_1490
REMARK  848  A    between atoms: CB_1490  and  CG_1491
REMARK  849  A    between atoms: CG_1491  and  CD_1492
REMARK  850  A    between atoms: CD_1492  and  CE_1493
REMARK  851  A    between atoms: CE_1493  and  NZ_1494
REMARK  852  A    between atoms: N_1495  and  CA_1496
REMARK  853  A    between atoms: CA_1496  and  C_1497
REMARK  854  A    between atoms: CA_1496  and  CB_1499
REMARK  855  A    between atoms: CB_1499  and  CG2_1500
REMARK  856  A    between atoms: CB_1499  and  CG1_1501
REMARK  857  A    between atoms: N_1502  and  CA_1503
REMARK  858  A    between atoms: CA_1503  and  C_1504
REMARK  859  A    between atoms: CA_1503  and  CB_1506
REMARK  860  A    between atoms: CB_1506  and  CG_1507
REMARK  861  A    between atoms: N_1510  and  CA_1511
REMARK  862  A    between atoms: CA_1511  and  C_1512
REMARK  863  A    between atoms: CA_1511  and  CB_1514
REMARK  864  A    between atoms: CB_1514  and  CG_1515
REMARK  865  A    between atoms: CG_1515  and  CD2_1516
REMARK  866  A    between atoms: CG_1515  and  CD1_1517
REMARK  867  A    between atoms: N_1518  and  CA_1519
REMARK  868  A    between atoms: CA_1519  and  C_1520
REMARK  869  A    between atoms: CA_1519  and  CB_1522
REMARK  870  A    between atoms: CB_1522  and  CG_1523
REMARK  871  A    between atoms: N_1532  and  CA_1533
REMARK  872  A    between atoms: CA_1533  and  C_1534
REMARK  873  A    between atoms: CA_1533  and  CB_1536
REMARK  874  A    between atoms: CB_1536  and  OG_1537
REMARK  875  A    between atoms: N_1538  and  CA_1539
REMARK  876  A    between atoms: CA_1539  and  C_1540
REMARK  877  A    between atoms: CA_1539  and  CB_1542
REMARK  878  A    between atoms: CB_1542  and  CG_1543
REMARK  879  A    between atoms: CG_1543  and  CD2_1544
REMARK  880  A    between atoms: CG_1543  and  CD1_1545
REMARK  881  A    between atoms: N_1546  and  CA_1547
REMARK  882  A    between atoms: CA_1547  and  C_1548
REMARK  883  A    between atoms: N_1550  and  CA_1551
REMARK  884  A    between atoms: CA_1551  and  C_1552
REMARK  885  A    between atoms: CA_1551  and  CB_1554
REMARK  886  A    between atoms: CB_1554  and  CG2_1555
REMARK  887  A    between atoms: CB_1554  and  CG1_1556
REMARK  888  A    between atoms: N_1557  and  CA_1558
REMARK  889  A    between atoms: CA_1558  and  C_1559
REMARK  890  A    between atoms: CA_1558  and  CB_1561
REMARK  891  A    between atoms: CB_1561  and  CG_1562
REMARK  892  A    between atoms: CG_1562  and  CD1_1563
REMARK  893  A    between atoms: CG_1562  and  CD2_1564
REMARK  894  A    between atoms: N_1565  and  CA_1566
REMARK  895  A    between atoms: CA_1566  and  C_1567
REMARK  896  A    between atoms: CA_1566  and  CB_1569
REMARK  897  A    between atoms: CB_1569  and  SG_1570
REMARK  898  A    between atoms: N_1571  and  CA_1572
REMARK  899  A    between atoms: CA_1572  and  C_1573
REMARK  900  A    between atoms: CA_1572  and  CB_1575
REMARK  901  A    between atoms: CB_1575  and  CG_1576
REMARK  902  A    between atoms: CZ_1581  and  OH_1582
REMARK  903  A    between atoms: N_1583  and  CA_1584
REMARK  904  A    between atoms: CA_1584  and  C_1585
REMARK  905  A    between atoms: CA_1584  and  CB_1587
REMARK  906  A    between atoms: CB_1587  and  CG_1588
REMARK  907  A    between atoms: CG_1588  and  CD_1589
REMARK  908  A    between atoms: N_1592  and  CA_1593
REMARK  909  A    between atoms: CA_1593  and  C_1594
REMARK  910  A    between atoms: CA_1593  and  CB_1596
REMARK  911  A    between atoms: CB_1596  and  CG_1597
REMARK  912  A    between atoms: N_1603  and  CA_1604
REMARK  913  A    between atoms: CA_1604  and  C_1605
REMARK  914  A    between atoms: CA_1604  and  CB_1607
REMARK  915  A    between atoms: CB_1607  and  CG_1608
REMARK  916  A    between atoms: CG_1608  and  CD1_1609
REMARK  917  A    between atoms: CG_1608  and  CD2_1610
REMARK  918  A    between atoms: N_1611  and  CA_1612
REMARK  919  A    between atoms: CA_1612  and  C_1613
REMARK  920  A    between atoms: CA_1612  and  CB_1615
REMARK  921  A    between atoms: CB_1615  and  CG2_1616
REMARK  922  A    between atoms: CB_1615  and  CG1_1617
REMARK  923  A    between atoms: N_1618  and  CA_1619
REMARK  924  A    between atoms: CA_1619  and  C_1620
REMARK  925  A    between atoms: N_1622  and  C_1623
REMARK  926  A    between atoms: C_1623  and  C_1624
REMARK  927  A    between atoms: C_1623  and  C_1626
REMARK  928  A    between atoms: C_1626  and  C_1627
REMARK  929  A    between atoms: C_1627  and  C_1628
REMARK  930  A    between atoms: CA_1630  and  C_1631
REMARK  931  A    between atoms: CA_1637  and  C_1638
REMARK  932  A    between atoms: N_1643  and  CA_1644
REMARK  933  A    between atoms: CA_1644  and  C_1645
REMARK  934  A    between atoms: CA_1644  and  CB_1647
REMARK  935  A    between atoms: CB_1647  and  CG_1648
REMARK  936  A    between atoms: N_1654  and  CA_1655
REMARK  937  A    between atoms: CA_1655  and  C_1656
REMARK  938  A    between atoms: CA_1655  and  CB_1658
REMARK  939  A    between atoms: CB_1658  and  CG_1659
REMARK  940  A    between atoms: CG_1659  and  CD_1660
REMARK  941  A    between atoms: N_1663  and  CA_1664
REMARK  942  A    between atoms: CA_1664  and  C_1665
REMARK  943  A    between atoms: CA_1664  and  CB_1667
REMARK  944  A    between atoms: N_1668  and  CA_1669
REMARK  945  A    between atoms: CA_1669  and  C_1670
REMARK  946  A    between atoms: CA_1669  and  CB_1672
REMARK  947  A    between atoms: CB_1672  and  CG_1673
REMARK  948  A    between atoms: N_1676  and  CA_1677
REMARK  949  A    between atoms: CA_1677  and  C_1678
REMARK  950  A    between atoms: CA_1677  and  CB_1680
REMARK  951  A    between atoms: CB_1680  and  OG1_1681
REMARK  952  A    between atoms: CB_1680  and  CG2_1682
REMARK  953  A    between atoms: N_1683  and  CA_1684
REMARK  954  A    between atoms: CA_1684  and  C_1685
REMARK  955  A    between atoms: CA_1684  and  CB_1687
REMARK  956  A    between atoms: CB_1687  and  CG_1688
REMARK  957  A    between atoms: CZ_1693  and  OH_1694
REMARK  958  A    between atoms: N_1695  and  CA_1696
REMARK  959  A    between atoms: CA_1696  and  C_1697
REMARK  960  A    between atoms: CA_1696  and  CB_1699
REMARK  961  A    between atoms: CB_1699  and  CG_1700
REMARK  962  A    between atoms: CG_1700  and  CD_1701
REMARK  963  A    between atoms: N_1704  and  CA_1705
REMARK  964  A    between atoms: CA_1705  and  C_1706
REMARK  965  A    between atoms: CA_1705  and  CB_1708
REMARK  966  A    between atoms: CB_1708  and  CG_1709
REMARK  967  A    between atoms: CG_1709  and  CD_1710
REMARK  968  A    between atoms: N_1713  and  CA_1714
REMARK  969  A    between atoms: CA_1714  and  C_1715
REMARK  970  A    between atoms: CA_1714  and  CB_1717
REMARK  971  A    between atoms: CB_1717  and  OG1_1718
REMARK  972  A    between atoms: CB_1717  and  CG2_1719
REMARK  973  A    between atoms: N_1720  and  CA_1721
REMARK  974  A    between atoms: CA_1721  and  C_1722
REMARK  975  A    between atoms: CA_1721  and  CB_1724
REMARK  976  A    between atoms: CB_1724  and  CG_1725
REMARK  977  A    between atoms: CZ_1730  and  OH_1731
REMARK  978  A    between atoms: N_1732  and  CA_1733
REMARK  979  A    between atoms: CA_1733  and  C_1734
REMARK  980  A    between atoms: CA_1733  and  CB_1736
REMARK  981  A    between atoms: CB_1736  and  SG_1737
REMARK  982  A    between atoms: N_1738  and  C_1739
REMARK  983  A    between atoms: C_1739  and  C_1740
REMARK  984  A    between atoms: C_1739  and  C_1742
REMARK  985  A    between atoms: C_1742  and  C_1743
REMARK  986  A    between atoms: C_1743  and  C_1744
REMARK  987  A    between atoms: C_1744  and  N_1745
REMARK  988  A    between atoms: N_1746  and  CA_1747
REMARK  989  A    between atoms: CA_1747  and  C_1748
REMARK  990  A    between atoms: CA_1747  and  CB_1750
REMARK  991  A    between atoms: CB_1750  and  CG1_1751
REMARK  992  A    between atoms: CB_1750  and  CG2_1752
REMARK  993  A    between atoms: CG1_1751  and  CD1_1753
REMARK  994  A    between atoms: N_1754  and  C_1755
REMARK  995  A    between atoms: C_1755  and  C_1756
REMARK  996  A    between atoms: C_1755  and  C_1758
REMARK  997  A    between atoms: C_1758  and  O_1759
REMARK  998  A    between atoms: N_1760  and  C_1761
REMARK  999  A    between atoms: C_1761  and  C_1762
REMARK  1000  A    between atoms: C_1761  and  C_1764
REMARK  1001  A    between atoms: C_1764  and  C_1765
REMARK  1002  A    between atoms: C_1765  and  C_1766
REMARK  1003  A    between atoms: C_1766  and  N_1767
REMARK  1004  A    between atoms: N_1771  and  C_1772
REMARK  1005  A    between atoms: C_1772  and  C_1773
REMARK  1006  A    between atoms: C_1772  and  C_1775
REMARK  1007  A    between atoms: C_1775  and  C_1776
REMARK  1008  A    between atoms: C_1775  and  C_1777
REMARK  1009  A    between atoms: N_1778  and  C_1779
REMARK  1010  A    between atoms: C_1779  and  C_1780
REMARK  1011  A    between atoms: C_1779  and  C_1782
REMARK  1012  A    between atoms: C_1782  and  C_1783
REMARK  1013  A    between atoms: C_1783  and  C_1784
REMARK  1014  A    between atoms: N_1787  and  C_1788
REMARK  1015  A    between atoms: C_1788  and  C_1789
REMARK  1016  A    between atoms: C_1788  and  C_1791
REMARK  1017  A    between atoms: C_1791  and  C_1792
REMARK  1018  A    between atoms: N_1798  and  C_1799
REMARK  1019  A    between atoms: C_1799  and  C_1800
REMARK  1020  A    between atoms: C_1799  and  C_1802
REMARK  1021  A    between atoms: C_1802  and  O_1803
REMARK  1022  A    between atoms: C_1802  and  C_1804
REMARK  1023  A    between atoms: N_1805  and  C_1806
REMARK  1024  A    between atoms: C_1806  and  C_1807
REMARK  1025  A    between atoms: C_1806  and  C_1809
REMARK  1026  A    between atoms: C_1809  and  C_1810
REMARK  1027  A    between atoms: C_1817  and  C_1818
REMARK  1028  A    between atoms: N_1823  and  C_1824
REMARK  1029  A    between atoms: C_1824  and  C_1825
REMARK  1030  A    between atoms: C_1824  and  C_1827
REMARK  1031  A    between atoms: C_1827  and  C_1828
REMARK  1032  A    between atoms: N_1831  and  C_1832
REMARK  1033  A    between atoms: C_1832  and  C_1833
REMARK  1034  A    between atoms: C_1832  and  C_1835
REMARK  1035  A    between atoms: C_1835  and  C_1836
REMARK  1036  A    between atoms: N_1842  and  C_1843
REMARK  1037  A    between atoms: C_1843  and  C_1844
REMARK  1038  A    between atoms: C_1843  and  C_1846
REMARK  1039  A    between atoms: C_1846  and  C_1847
REMARK  1040  A    between atoms: C_1846  and  C_1848
REMARK  1041  A    between atoms: N_1849  and  C_1850
REMARK  1042  A    between atoms: C_1850  and  C_1851
REMARK  1043  A    between atoms: C_1850  and  C_1853
REMARK  1044  A    between atoms: C_1853  and  O_1854
REMARK  1045  A    between atoms: C_1853  and  C_1855
REMARK  1046  A    between atoms: N_1856  and  C_1857
REMARK  1047  A    between atoms: C_1858  and  C_1859
REMARK  1048  A    between atoms: C_1858  and  C_1861
REMARK  1049  A    between atoms: C_1862  and  C_1863
REMARK  1050  A    between atoms: C_1862  and  C_1864
REMARK  1051  A    between atoms: C_1863  and  C_1865
REMARK  1052  A    between atoms: N_1871  and  C_1872
REMARK  1053  A    between atoms: C_1872  and  C_1873
REMARK  1054  A    between atoms: N_1875  and  CA_1876
REMARK  1055  A    between atoms: CA_1876  and  C_1877
REMARK  1056  A    between atoms: CA_1876  and  CB_1879
REMARK  1057  A    between atoms: N_1880  and  CA_1881
REMARK  1058  A    between atoms: CA_1881  and  C_1882
REMARK  1059  A    between atoms: CA_1881  and  CB_1884
REMARK  1060  A    between atoms: CB_1884  and  CG_1885
REMARK  1061  A    between atoms: CG_1885  and  CD_1886
REMARK  1062  A    between atoms: CD_1886  and  NE_1887
REMARK  1063  A    between atoms: N_1891  and  CA_1892
REMARK  1064  A    between atoms: CA_1892  and  C_1893
REMARK  1065  A    between atoms: CA_1892  and  CB_1895
REMARK  1066  A    between atoms: CB_1895  and  CG_1896
REMARK  1067  A    between atoms: N_1899  and  CA_1900
REMARK  1068  A    between atoms: CA_1900  and  C_1901
REMARK  1069  A    between atoms: CA_1900  and  CB_1903
REMARK  1070  A    between atoms: CB_1903  and  CG_1904
REMARK  1071  A    between atoms: CG_1904  and  CD1_1905
REMARK  1072  A    between atoms: CG_1904  and  CD2_1906
REMARK  1073  A    between atoms: N_1907  and  CA_1908
REMARK  1074  A    between atoms: CA_1908  and  C_1909
REMARK  1075  A    between atoms: CA_1908  and  CB_1911
REMARK  1076  A    between atoms: CB_1911  and  CG1_1912
REMARK  1077  A    between atoms: CB_1911  and  CG2_1913
REMARK  1078  A    between atoms: CG1_1912  and  CD1_1914
REMARK  1079  A    between atoms: N_1915  and  CA_1916
REMARK  1080  A    between atoms: CA_1916  and  C_1917
REMARK  1081  A    between atoms: CA_1916  and  CB_1919
REMARK  1082  A    between atoms: CB_1919  and  OG_1920
REMARK  1083  A    between atoms: N_1921  and  CA_1922
REMARK  1084  A    between atoms: CA_1922  and  C_1923
REMARK  1085  A    between atoms: CA_1922  and  CB_1925
REMARK  1086  A    between atoms: CB_1925  and  CG_1926
REMARK  1087  A    between atoms: CG_1926  and  CD_1927
REMARK  1088  A    between atoms: CD_1927  and  NE_1928
REMARK  1089  A    between atoms: N_1932  and  CA_1933
REMARK  1090  A    between atoms: CA_1933  and  C_1934
REMARK  1091  A    between atoms: CA_1933  and  CB_1936
REMARK  1092  A    between atoms: CB_1936  and  CG_1937
REMARK  1093  A    between atoms: CG_1937  and  CD2_1938
REMARK  1094  A    between atoms: CG_1937  and  CD1_1939
REMARK  1095  A    between atoms: N_1940  and  CA_1941
REMARK  1096  A    between atoms: CA_1941  and  C_1942
REMARK  1097  A    between atoms: CA_1941  and  CB_1944
REMARK  1098  A    between atoms: CB_1944  and  CG_1945
REMARK  1099  A    between atoms: CG_1945  and  CD2_1946
REMARK  1100  A    between atoms: CG_1945  and  CD1_1947
REMARK  1101  A    between atoms: N_1948  and  CA_1949
REMARK  1102  A    between atoms: CA_1949  and  C_1950
REMARK  1103  A    between atoms: CA_1949  and  CB_1952
REMARK  1104  A    between atoms: CB_1952  and  CG_1953
REMARK  1105  A    between atoms: CG_1953  and  CD_1954
REMARK  1106  A    between atoms: CD_1954  and  CE_1955
REMARK  1107  A    between atoms: CE_1955  and  NZ_1956
REMARK  1108  A    between atoms: N_1957  and  CA_1958
REMARK  1109  A    between atoms: CA_1958  and  C_1959
REMARK  1110  A    between atoms: CA_1958  and  CB_1961
REMARK  1111  A    between atoms: CB_1961  and  CG_1962
REMARK  1112  A    between atoms: N_1967  and  CA_1968
REMARK  1113  A    between atoms: CA_1968  and  C_1969
REMARK  1114  A    between atoms: CA_1968  and  CB_1971
REMARK  1115  A    between atoms: CB_1971  and  CG_1972
REMARK  1116  A    between atoms: CA_1976  and  C_1977
REMARK  1117  A    between atoms: N_1982  and  C_1983
REMARK  1118  A    between atoms: C_1983  and  C_1984
REMARK  1119  A    between atoms: C_1983  and  C_1986
REMARK  1120  A    between atoms: C_1986  and  O_1987
REMARK  1121  A    between atoms: N_1988  and  C_1989
REMARK  1122  A    between atoms: C_1989  and  C_1990
REMARK  1123  A    between atoms: C_1989  and  C_1992
REMARK  1124  A    between atoms: C_1992  and  C_1993
REMARK  1125  A    between atoms: C_1993  and  C_1994
REMARK  1126  A    between atoms: N_1997  and  C_1998
REMARK  1127  A    between atoms: C_1998  and  C_1999
REMARK  1128  A    between atoms: C_1998  and  C_2001
REMARK  1129  A    between atoms: C_2001  and  C_2002
REMARK  1130  A    between atoms: C_2002  and  C_2003
REMARK  1131  A    between atoms: C_2003  and  N_2004
REMARK  1132  A    between atoms: C_2009  and  C_2010
REMARK  1133  A    between atoms: N_2015  and  C_2017
REMARK  1134  A    between atoms: C_2016  and  C_2018
REMARK  1135  A    between atoms: C_2016  and  C_2021
REMARK  1136  A    between atoms: C_2021  and  C_2022
REMARK  1137  A    between atoms: C_2022  and  C_2023
REMARK  1138  A    between atoms: C_2023  and  S_2024
REMARK  1139  A    between atoms: C_2023  and  S_2025
REMARK  1140  A    between atoms: S_2024  and  C_2026
REMARK  1141  A    between atoms: S_2025  and  C_2027
REMARK  1142  A    between atoms: N_2028  and  CA_2029
REMARK  1143  A    between atoms: CA_2029  and  C_2030
REMARK  1144  A    between atoms: CA_2029  and  CB_2032
REMARK  1145  A    between atoms: CB_2032  and  CG_2033
REMARK  1146  A    between atoms: CG_2033  and  CD1_2034
REMARK  1147  A    between atoms: CG_2033  and  CD2_2035
REMARK  1148  A    between atoms: N_2036  and  CA_2037
REMARK  1149  A    between atoms: CA_2037  and  C_2038
REMARK  1150  A    between atoms: CA_2037  and  CB_2040
REMARK  1151  A    between atoms: N_2041  and  CA_2042
REMARK  1152  A    between atoms: CA_2042  and  C_2043
REMARK  1153  A    between atoms: CA_2042  and  CB_2045
REMARK  1154  A    between atoms: CB_2045  and  CG_2046
REMARK  1155  A    between atoms: CG_2046  and  CD_2047
REMARK  1156  A    between atoms: N_2050  and  CA_2051
REMARK  1157  A    between atoms: CA_2051  and  C_2052
REMARK  1158  A    between atoms: CA_2051  and  CB_2054
REMARK  1159  A    between atoms: CB_2054  and  CG2_2055
REMARK  1160  A    between atoms: CB_2054  and  CG1_2056
REMARK  1161  A    between atoms: N_2057  and  CA_2058
REMARK  1162  A    between atoms: CA_2058  and  C_2059
REMARK  1163  A    between atoms: CA_2058  and  CB_2061
REMARK  1164  A    between atoms: CB_2061  and  CG_2062
REMARK  1165  A    between atoms: CG_2062  and  CD1_2063
REMARK  1166  A    between atoms: CG_2062  and  CD2_2064
REMARK  1167  A    between atoms: N_2065  and  CA_2066
REMARK  1168  A    between atoms: CA_2066  and  C_2067
REMARK  1169  A    between atoms: CA_2066  and  CB_2069
REMARK  1170  A    between atoms: CB_2069  and  CG_2070
REMARK  1171  A    between atoms: CG_2070  and  CD_2071
REMARK  1172  A    between atoms: N_2074  and  CA_2075
REMARK  1173  A    between atoms: CA_2075  and  C_2076
REMARK  1174  A    between atoms: CA_2075  and  CB_2078
REMARK  1175  A    between atoms: CB_2078  and  CG_2079
REMARK  1176  A    between atoms: CA_2085  and  C_2086
REMARK  1177  A    between atoms: N_2091  and  CA_2092
REMARK  1178  A    between atoms: CA_2092  and  C_2093
REMARK  1179  A    between atoms: CA_2092  and  CB_2095
REMARK  1180  A    between atoms: CB_2095  and  CG_2096
REMARK  1181  A    between atoms: N_2105  and  CA_2106
REMARK  1182  A    between atoms: CA_2106  and  C_2107
REMARK  1183  A    between atoms: CA_2106  and  CB_2109
REMARK  1184  A    between atoms: CB_2109  and  CG1_2110
REMARK  1185  A    between atoms: CB_2109  and  CG2_2111
REMARK  1186  A    between atoms: CG1_2110  and  CD1_2112
REMARK  1187  A    between atoms: N_2113  and  CA_2114
REMARK  1188  A    between atoms: CA_2114  and  C_2115
REMARK  1189  A    between atoms: CA_2114  and  CB_2117
REMARK  1190  A    between atoms: CB_2117  and  OG1_2118
REMARK  1191  A    between atoms: CB_2117  and  CG2_2119
REMARK  1192  A    between atoms: N_2120  and  CA_2121
REMARK  1193  A    between atoms: CA_2121  and  C_2122
REMARK  1194  A    between atoms: CA_2121  and  CB_2124
REMARK  1195  A    between atoms: N_2125  and  CA_2126
REMARK  1196  A    between atoms: CA_2126  and  C_2127
REMARK  1197  A    between atoms: CA_2126  and  CB_2129
REMARK  1198  A    between atoms: CB_2129  and  CG_2130
REMARK  1199  A    between atoms: N_2133  and  CA_2134
REMARK  1200  A    between atoms: CA_2134  and  C_2135
REMARK  1201  A    between atoms: CA_2134  and  CB_2137
REMARK  1202  A    between atoms: CB_2137  and  OG_2138
REMARK  1203  A    between atoms: N_2139  and  CA_2140
REMARK  1204  A    between atoms: CA_2140  and  C_2141
REMARK  1205  A    between atoms: CA_2140  and  CB_2143
REMARK  1206  A    between atoms: CB_2143  and  OG_2144
REMARK  1207  A    between atoms: N_2145  and  C_2146
REMARK  1208  A    between atoms: C_2146  and  C_2147
REMARK  1209  A    between atoms: C_2146  and  C_2149
REMARK  1210  A    between atoms: C_2149  and  C_2150
REMARK  1211  A    between atoms: N_2151  and  CA_2152
REMARK  1212  A    between atoms: CA_2152  and  C_2153
REMARK  1213  A    between atoms: CA_2152  and  CB_2155
REMARK  1214  A    between atoms: CB_2155  and  OG_2156
REMARK  1215  A    between atoms: N_2157  and  CA_2158
REMARK  1216  A    between atoms: CA_2158  and  C_2159
REMARK  1217  A    between atoms: CA_2158  and  CB_2161
REMARK  1218  A    between atoms: CB_2161  and  CG_2162
REMARK  1219  A    between atoms: CG_2162  and  CD_2163
REMARK  1220  A    between atoms: CA_2167  and  C_2168
REMARK  1221  A    between atoms: CA_2174  and  C_2175
REMARK  1222  A    between atoms: N_2180  and  CA_2181
REMARK  1223  A    between atoms: CA_2181  and  C_2182
REMARK  1224  A    between atoms: CA_2181  and  CB_2184
REMARK  1225  A    between atoms: CB_2184  and  OG_2185
REMARK  1226  A    between atoms: N_2186  and  CA_2187
REMARK  1227  A    between atoms: CA_2187  and  C_2188
REMARK  1228  A    between atoms: CA_2187  and  CB_2190
REMARK  1229  A    between atoms: CB_2190  and  CG_2191
REMARK  1230  A    between atoms: N_2200  and  CA_2201
REMARK  1231  A    between atoms: CA_2201  and  C_2202
REMARK  1232  A    between atoms: CA_2201  and  CB_2204
REMARK  1233  A    between atoms: CB_2204  and  CG2_2205
REMARK  1234  A    between atoms: CB_2204  and  CG1_2206
REMARK  1235  A    between atoms: N_2207  and  CA_2208
REMARK  1236  A    between atoms: CA_2208  and  C_2209
REMARK  1237  A    between atoms: CA_2208  and  CB_2211
REMARK  1238  A    between atoms: CB_2211  and  OG1_2212
REMARK  1239  A    between atoms: CB_2211  and  CG2_2213
REMARK  1240  A    between atoms: N_2214  and  CA_2215
REMARK  1241  A    between atoms: CA_2215  and  C_2216
REMARK  1242  A    between atoms: CA_2215  and  CB_2218
REMARK  1243  A    between atoms: CB_2218  and  CG_2219
REMARK  1244  A    between atoms: CG_2219  and  CD_2220
REMARK  1245  A    between atoms: N_2223  and  CA_2224
REMARK  1246  A    between atoms: CA_2224  and  C_2225
REMARK  1247  A    between atoms: CA_2224  and  CB_2227
REMARK  1248  A    between atoms: CB_2227  and  CG_2228
REMARK  1249  A    between atoms: CG_2228  and  SD_2229
REMARK  1250  A    between atoms: SD_2229  and  CE_2230
REMARK  1251  A    between atoms: N_2231  and  CA_2232
REMARK  1252  A    between atoms: CA_2232  and  C_2233
REMARK  1253  A    between atoms: CA_2232  and  CB_2235
REMARK  1254  A    between atoms: CB_2235  and  CG_2236
REMARK  1255  A    between atoms: CG_2236  and  CD1_2237
REMARK  1256  A    between atoms: CG_2236  and  CD2_2238
REMARK  1257  A    between atoms: N_2239  and  CA_2240
REMARK  1258  A    between atoms: CA_2240  and  C_2241
REMARK  1259  A    between atoms: CA_2240  and  CB_2243
REMARK  1260  A    between atoms: CB_2243  and  CG_2244
REMARK  1261  A    between atoms: CG_2244  and  CD1_2245
REMARK  1262  A    between atoms: CG_2244  and  CD2_2246
REMARK  1263  A    between atoms: N_2247  and  CA_2248
REMARK  1264  A    between atoms: CA_2248  and  C_2249
REMARK  1265  A    between atoms: CA_2248  and  CB_2251
REMARK  1266  A    between atoms: CB_2251  and  CG_2252
REMARK  1267  A    between atoms: CG_2252  and  CD_2253
REMARK  1268  A    between atoms: N_2256  and  CA_2257
REMARK  1269  A    between atoms: CA_2257  and  C_2258
REMARK  1270  A    between atoms: CA_2257  and  CB_2260
REMARK  1271  A    between atoms: CB_2260  and  CG_2261
REMARK  1272  A    between atoms: CG_2261  and  CD_2262
REMARK  1273  A    between atoms: CD_2262  and  CE_2263
REMARK  1274  A    between atoms: CE_2263  and  NZ_2264
REMARK  1275  A    between atoms: N_2265  and  C_2266
REMARK  1276  A    between atoms: C_2266  and  C_2267
REMARK  1277  A    between atoms: C_2266  and  C_2269
REMARK  1278  A    between atoms: C_2269  and  C_2270
REMARK  1279  A    between atoms: N_2271  and  CA_2272
REMARK  1280  A    between atoms: CA_2272  and  C_2273
REMARK  1281  A    between atoms: CA_2272  and  CB_2275
REMARK  1282  A    between atoms: CB_2275  and  CG_2276
REMARK  1283  A    between atoms: CG_2276  and  CD2_2277
REMARK  1284  A    between atoms: CG_2276  and  CD1_2278
REMARK  1285  A    between atoms: N_2279  and  CA_2280
REMARK  1286  A    between atoms: CA_2280  and  C_2281
REMARK  1287  A    between atoms: CA_2280  and  CB_2283
REMARK  1288  A    between atoms: CB_2283  and  CG_2284
REMARK  1289  A    between atoms: N_2293  and  CA_2294
REMARK  1290  A    between atoms: CA_2294  and  C_2295
REMARK                            x       y       z     vdW  Elec       q    Type
REMARK                         _______ _______ _______ _____ _____    ______ ____
ROOT
ATOM      1  CA  ALA H  14     -33.832  36.049   3.895  0.00  0.00    +0.156 C 
ATOM      2  CB  ALA H  14     -32.638  35.831   4.829  0.00  0.00    +0.038 C 
ENDROOT
BRANCH   1   3
ATOM      3  C   ALA H  14     -34.762  34.831   3.917  0.00  0.00    +0.234 C 
ATOM      4  O   ALA H  14     -35.953  34.934   4.223  0.00  0.00    -0.274 OA
ATOM      5  N   ASP H  15     -34.201  33.665   3.584  0.00  0.00    -0.302 N 
ATOM      6  H   ASP H  15     -33.277  33.674   3.244  0.00  0.00    +0.150 HD
BRANCH   5   7
ATOM      7  CA  ASP H  15     -34.883  32.374   3.697  0.00  0.00    +0.164 C 
BRANCH   7   8
ATOM      8  C   ASP H  15     -36.168  32.315   2.868  0.00  0.00    +0.234 C 
ATOM      9  O   ASP H  15     -37.277  32.350   3.416  0.00  0.00    -0.274 OA
ATOM     10  N   PHE H  16     -36.028  32.179   1.553  0.00  0.00    -0.302 N 
ATOM     11  H   PHE H  16     -35.120  32.116   1.177  0.00  0.00    +0.150 HD
BRANCH  10  12
ATOM     12  CA  PHE H  16     -37.167  32.120   0.648  0.00  0.00    +0.163 C 
BRANCH  12  13
ATOM     13  C   PHE H  16     -37.715  30.693   0.450  0.00  0.00    +0.234 C 
ATOM     14  O   PHE H  16     -38.399  30.438  -0.543  0.00  0.00    -0.274 OA
ATOM     15  N   GLY H  17     -37.464  29.775   1.387  0.00  0.00    -0.305 N 
ATOM     16  H   GLY H  17     -36.940  30.021   2.183  0.00  0.00    +0.149 HD
BRANCH  15  17
ATOM     17  CA  GLY H  17     -37.958  28.414   1.242  0.00  0.00    +0.200 C 
BRANCH  17  18
ATOM     18  C   GLY H  17     -39.477  28.259   1.267  0.00  0.00    +0.231 C 
ATOM     19  O   GLY H  17     -39.986  27.246   0.784  0.00  0.00    -0.274 OA
ATOM     20  N   TRP H  18     -40.208  29.220   1.827  0.00  0.00    -0.302 N 
ATOM     21  H   TRP H  18     -39.752  29.966   2.279  0.00  0.00    +0.150 HD
BRANCH  20  22
ATOM     22  CA  TRP H  18     -41.677  29.199   1.790  0.00  0.00    +0.163 C 
BRANCH  22  23
ATOM     23  C   TRP H  18     -42.248  30.094   0.698  0.00  0.00    +0.234 C 
ATOM     24  O   TRP H  18     -43.477  30.192   0.563  0.00  0.00    -0.274 OA
ATOM     25  N   SER H  19     -41.397  30.742  -0.086  0.00  0.00    -0.301 N 
ATOM     26  H   SER H  19     -40.431  30.573  -0.003  0.00  0.00    +0.150 HD
BRANCH  25  27
ATOM     27  CA  SER H  19     -41.880  31.701  -1.068  0.00  0.00    +0.184 C 
BRANCH  27  28
ATOM     28  C   SER H  19     -42.480  30.991  -2.275  0.00  0.00    +0.236 C 
ATOM     29  O   SER H  19     -42.344  29.777  -2.470  0.00  0.00    -0.274 OA
ATOM     30  N   VAL H  20     -43.152  31.781  -3.107  0.00  0.00    -0.302 N 
ATOM     31  H   VAL H  20     -43.231  32.740  -2.899  0.00  0.00    +0.150 HD
BRANCH  30  32
ATOM     32  CA  VAL H  20     -43.773  31.265  -4.314  0.00  0.00    +0.161 C 
BRANCH  32  33
ATOM     33  C   VAL H  20     -43.832  32.395  -5.331  0.00  0.00    +0.234 C 
ATOM     34  O   VAL H  20     -43.886  33.578  -4.978  0.00  0.00    -0.274 OA
ATOM     35  N   HIS H  21     -43.759  32.026  -6.593  0.00  0.00    -0.302 N 
ATOM     36  H   HIS H  21     -43.557  31.084  -6.798  0.00  0.00    +0.150 HD
BRANCH  35  37
ATOM     37  CA  HIS H  21     -43.963  32.948  -7.693  0.00  0.00    +0.164 C 
BRANCH  37  38
ATOM     38  C   HIS H  21     -45.393  32.726  -8.155  0.00  0.00    +0.234 C 
ATOM     39  O   HIS H  21     -45.717  31.674  -8.717  0.00  0.00    -0.274 OA
ATOM     40  N   ALA H  22     -46.246  33.708  -7.884  0.00  0.00    -0.303 N 
ATOM     41  H   ALA H  22     -45.880  34.560  -7.554  0.00  0.00    +0.149 HD
BRANCH  40  42
ATOM     42  CA  ALA H  22     -47.691  33.599  -8.046  0.00  0.00    +0.156 C 
ATOM     43  CB  ALA H  22     -48.393  33.805  -6.703  0.00  0.00    +0.038 C 
BRANCH  42  44
ATOM     44  C   ALA H  22     -48.145  34.627  -9.079  0.00  0.00    +0.236 C 
ATOM     45  O   ALA H  22     -48.785  35.630  -8.736  0.00  0.00    -0.274 OA
ATOM     46  N   PRO H  23     -47.837  34.399 -10.361  0.00  0.00    -0.288 N 
ATOM     47  CA  PRO H  23     -48.050  35.468 -11.354  0.00  0.00    +0.162 C 
ATOM     48  CB  PRO H  23     -47.379  34.919 -12.622  0.00  0.00    +0.033 C 
ATOM     49  CG  PRO H  23     -47.286  33.441 -12.432  0.00  0.00    +0.021 C 
ATOM     50  CD  PRO H  23     -47.405  33.127 -10.968  0.00  0.00    +0.109 C 
BRANCH  47  51
ATOM     51  C   PRO H  23     -49.510  35.792 -11.587  0.00  0.00    +0.234 C 
ATOM     52  O   PRO H  23     -49.871  36.973 -11.664  0.00  0.00    -0.274 OA
ATOM     53  N   SER H  24     -50.362  34.778 -11.712  0.00  0.00    -0.301 N 
ATOM     54  H   SER H  24     -50.017  33.856 -11.688  0.00  0.00    +0.150 HD
BRANCH  53  55
ATOM     55  CA  SER H  24     -51.794  34.997 -11.884  0.00  0.00    +0.184 C 
BRANCH  55  56
ATOM     56  C   SER H  24     -52.602  34.305 -10.796  0.00  0.00    +0.236 C 
ATOM     57  O   SER H  24     -53.350  34.966 -10.066  0.00  0.00    -0.274 OA
ATOM     58  N   SER H  25     -52.453  32.994 -10.652  0.00  0.00    -0.300 N 
ATOM     59  H   SER H  25     -51.743  32.531 -11.153  0.00  0.00    +0.150 HD
BRANCH  58  60
ATOM     60  CA  SER H  25     -53.318  32.229  -9.769  0.00  0.00    +0.184 C 
BRANCH  60  61
ATOM     61  C   SER H  25     -53.077  32.575  -8.300  0.00  0.00    +0.236 C 
ATOM     62  O   SER H  25     -51.991  33.002  -7.896  0.00  0.00    -0.274 OA
ATOM     63  N   UNK H  26     -54.127  32.407  -7.505  0.00  0.00    -0.302 N 
ATOM     64  H   UNK H  26     -55.014  32.261  -7.906  0.00  0.00    +0.150 HD
BRANCH  63  65
ATOM     65  C   UNK H  26     -54.001  32.433  -6.063  0.00  0.00    +0.159 C 
BRANCH  65  66
ATOM     66  C   UNK H  26     -53.478  31.083  -5.576  0.00  0.00    +0.234 C 
ATOM     67  O   UNK H  26     -53.689  30.045  -6.204  0.00  0.00    -0.274 OA
ATOM     68  N   ARG H  27     -52.779  31.111  -4.454  0.00  0.00    -0.302 N 
ATOM     69  H   ARG H  27     -52.712  31.967  -3.973  0.00  0.00    +0.150 HD
BRANCH  68  70
ATOM     70  CA  ARG H  27     -52.102  29.953  -3.886  0.00  0.00    +0.159 C 
BRANCH  70  71
ATOM     71  C   ARG H  27     -53.002  29.261  -2.872  0.00  0.00    +0.234 C 
ATOM     72  O   ARG H  27     -53.862  29.896  -2.250  0.00  0.00    -0.274 OA
ATOM     73  N   THR H  28     -52.765  27.962  -2.665  0.00  0.00    -0.302 N 
ATOM     74  H   THR H  28     -52.133  27.481  -3.247  0.00  0.00    +0.150 HD
BRANCH  73  75
ATOM     75  CA  THR H  28     -53.439  27.250  -1.579  0.00  0.00    +0.164 C 
BRANCH  75  76
ATOM     76  C   THR H  28     -52.525  26.472  -0.608  0.00  0.00    +0.248 C 
ATOM     77  O   THR H  28     -53.028  25.820   0.308  0.00  0.00    -0.299 OA
ENDBRANCH  75  76
BRANCH  75  78
ATOM     78  CB  THR H  28     -54.505  26.272  -2.147  0.00  0.00    +0.139 C 
ATOM     79  CG2 THR H  28     -55.392  26.966  -3.179  0.00  0.00    +0.040 C 
BRANCH  78  80
ATOM     80  OG1 THR H  28     -53.858  25.141  -2.747  0.00  0.00    -0.390 OA
ATOM     81  H   THR H  28     -53.298  25.440  -3.480  0.00  0.00    +0.210 HD
ENDBRANCH  78  80
ENDBRANCH  75  78
ENDBRANCH  73  75
ENDBRANCH  70  71
BRANCH  70  82
ATOM     82  CB  ARG H  27     -50.838  30.416  -3.167  0.00  0.00    +0.035 C 
BRANCH  82  83
ATOM     83  CG  ARG H  27     -49.720  30.940  -4.024  0.00  0.00    +0.039 C 
BRANCH  83  84
ATOM     84  CD  ARG H  27     -49.713  30.465  -5.440  0.00  0.00    +0.196 C 
BRANCH  84  85
ATOM     85  NE  ARG H  27     -49.137  29.125  -5.475  0.00  0.00    -0.279 N 
ATOM     86  CZ  ARG H  27     -48.790  28.487  -6.584  0.00  0.00    +0.341 C 
ATOM     87  NH1 ARG H  27     -48.996  29.017  -7.776  0.00  0.00    -0.292 N 
ATOM     88  NH2 ARG H  27     -48.191  27.305  -6.491  0.00  0.00    -0.292 N 
ATOM     89  H   ARG H  27     -48.997  28.663  -4.617  0.00  0.00    +0.258 HD
ATOM     90  H   ARG H  27     -48.730  28.525  -8.586  0.00  0.00    +0.255 HD
ATOM     91  H   ARG H  27     -49.415  29.904  -7.854  0.00  0.00    +0.255 HD
ATOM     92  H   ARG H  27     -47.928  26.821  -7.307  0.00  0.00    +0.255 HD
ATOM     93  H   ARG H  27     -48.010  26.913  -5.606  0.00  0.00    +0.255 HD
ENDBRANCH  84  85
ENDBRANCH  83  84
ENDBRANCH  82  83
ENDBRANCH  70  82
ENDBRANCH  68  70
ENDBRANCH  65  66
BRANCH  65  94
ATOM     94  C   UNK H  26     -55.348  32.759  -5.429  0.00  0.00    +0.031 C 
BRANCH  94  95
ATOM     95  C   UNK H  26     -56.220  33.651  -6.297  0.00  0.00    -0.001 C 
ATOM     96  C   UNK H  26     -57.699  33.483  -5.969  0.00  0.00    +0.004 C 
ENDBRANCH  94  95
ENDBRANCH  65  94
ENDBRANCH  63  65
ENDBRANCH  60  61
BRANCH  60  97
ATOM     97  CB  SER H  25     -53.106  30.731  -9.997  0.00  0.00    +0.187 C 
BRANCH  97  98
ATOM     98  OG  SER H  25     -54.006  29.965  -9.211  0.00  0.00    -0.393 OA
ATOM     99  H   SER H  25     -53.854  30.152  -8.271  0.00  0.00    +0.209 HD
ENDBRANCH  97  98
ENDBRANCH  60  97
ENDBRANCH  58  60
ENDBRANCH  55  56
BRANCH  55 100
ATOM    100  CB  SER H  24     -52.238  34.518 -13.274  0.00  0.00    +0.187 C 
BRANCH 100 101
ATOM    101  OG  SER H  24     -51.516  33.364 -13.673  0.00  0.00    -0.393 OA
ATOM    102  H   SER H  24     -51.680  32.646 -13.042  0.00  0.00    +0.209 HD
ENDBRANCH 100 101
ENDBRANCH  55 100
ENDBRANCH  53  55
ENDBRANCH  47  51
ENDBRANCH  42  44
ENDBRANCH  40  42
ENDBRANCH  37  38
BRANCH  37 103
ATOM    103  CB  HIS H  21     -42.954  32.716  -8.812  0.00  0.00    +0.084 C 
BRANCH 103 104
ATOM    104  CG  HIS H  21     -43.178  33.591 -10.002  0.00  0.00    +0.044 C 
ATOM    105  ND1 HIS H  21     -43.340  33.089 -11.278  0.00  0.00    -0.243 NA
ATOM    106  CD2 HIS H  21     -43.313  34.933 -10.104  0.00  0.00    +0.194 C 
ATOM    107  CE1 HIS H  21     -43.542  34.089 -12.120  0.00  0.00    +0.215 C 
ATOM    108  NE2 HIS H  21     -43.536  35.218 -11.434  0.00  0.00    -0.266 NA
ENDBRANCH 103 104
ENDBRANCH  37 103
ENDBRANCH  35  37
ENDBRANCH  32  33
BRANCH  32 109
ATOM    109  CB  VAL H  20     -45.172  30.686  -4.007  0.00  0.00    +0.012 C 
ATOM    110  CG2 VAL H  20     -46.080  31.791  -3.503  0.00  0.00    +0.009 C 
ATOM    111  CG1 VAL H  20     -45.765  30.036  -5.236  0.00  0.00    +0.009 C 
ENDBRANCH  32 109
ENDBRANCH  30  32
ENDBRANCH  27  28
BRANCH  27 112
ATOM    112  CB  SER H  19     -40.753  32.629  -1.511  0.00  0.00    +0.187 C 
BRANCH 112 113
ATOM    113  OG  SER H  19     -39.797  31.922  -2.284  0.00  0.00    -0.393 OA
ATOM    114  H   SER H  19     -40.225  31.560  -3.076  0.00  0.00    +0.209 HD
ENDBRANCH 112 113
ENDBRANCH  27 112
ENDBRANCH  25  27
ENDBRANCH  22  23
BRANCH  22 115
ATOM    115  CB  TRP H  18     -42.261  29.631   3.137  0.00  0.00    +0.065 C 
BRANCH 115 116
ATOM    116  CG  TRP H  18     -42.362  28.511   4.183  0.00  0.00    -0.037 C 
ATOM    117  CD1 TRP H  18     -41.813  28.515   5.434  0.00  0.00    +0.173 C 
ATOM    118  CD2 TRP H  18     -43.054  27.261   4.061  0.00  0.00    +0.001 A 
ATOM    119  NE1 TRP H  18     -42.106  27.345   6.085  0.00  0.00    -0.279 NA
ATOM    120  CE2 TRP H  18     -42.859  26.555   5.264  0.00  0.00    +0.066 A 
ATOM    121  CE3 TRP H  18     -43.803  26.663   3.045  0.00  0.00    +0.010 A 
ATOM    122  CZ2 TRP H  18     -43.409  25.295   5.490  0.00  0.00    +0.028 A 
ATOM    123  CZ3 TRP H  18     -44.340  25.400   3.266  0.00  0.00    +0.001 A 
ATOM    124  CH2 TRP H  18     -44.138  24.733   4.480  0.00  0.00    +0.002 A 
ENDBRANCH 115 116
ENDBRANCH  22 115
ENDBRANCH  20  22
ENDBRANCH  17  18
ENDBRANCH  15  17
ENDBRANCH  12  13
BRANCH  12 125
ATOM    125  CB  PHE H  16     -36.774  32.749  -0.690  0.00  0.00    +0.067 C 
BRANCH 125 126
ATOM    126  CG  PHE H  16     -36.790  34.252  -0.656  0.00  0.00    -0.045 A 
ATOM    127  CD2 PHE H  16     -35.844  34.952   0.083  0.00  0.00    +0.004 A 
ATOM    128  CD1 PHE H  16     -37.776  34.959  -1.315  0.00  0.00    +0.004 A 
ATOM    129  CE2 PHE H  16     -35.879  36.340   0.144  0.00  0.00    +0.000 A 
ATOM    130  CE1 PHE H  16     -37.812  36.334  -1.267  0.00  0.00    +0.000 A 
ATOM    131  CZ  PHE H  16     -36.867  37.023  -0.525  0.00  0.00    +0.000 A 
ENDBRANCH 125 126
ENDBRANCH  12 125
ENDBRANCH  10  12
ENDBRANCH   7   8
BRANCH   7 132
ATOM    132  CB  ASP H  15     -35.197  32.044   5.158  0.00  0.00    +0.083 C 
BRANCH 132 133
ATOM    133  CG  ASP H  15     -35.687  30.598   5.342  0.00  0.00    +0.044 C 
ATOM    134  OD1 ASP H  15     -35.765  29.853   4.334  0.00  0.00    -0.550 OA
ATOM    135  OD2 ASP H  15     -35.959  30.197   6.494  0.00  0.00    -0.550 OA
ENDBRANCH 132 133
ENDBRANCH   7 132
ENDBRANCH   5   7
ENDBRANCH   1   3
BRANCH   1 138
ATOM    136  C   ILE H  13     -34.493  38.375   3.549  0.00  0.00    +0.234 C 
ATOM    137  O   ILE H  13     -33.883  38.437   2.471  0.00  0.00    -0.274 OA
ATOM    138  N   ALA H  14     -34.570  37.254   4.267  0.00  0.00    -0.303 N 
ATOM    139  H   ALA H  14     -35.140  37.238   5.070  0.00  0.00    +0.149 HD
BRANCH 136 140
ATOM    140  CA  ILE H  13     -35.253  39.578   4.087  0.00  0.00    +0.162 C 
BRANCH 140 143
ATOM    141  C   LYS H  12     -33.389  40.887   4.965  0.00  0.00    +0.234 C 
ATOM    142  O   LYS H  12     -33.199  40.095   5.893  0.00  0.00    -0.274 OA
ATOM    143  N   ILE H  13     -34.383  40.756   4.084  0.00  0.00    -0.302 N 
ATOM    144  H   ILE H  13     -34.534  41.466   3.419  0.00  0.00    +0.150 HD
BRANCH 141 145
ATOM    145  CA  LYS H  12     -32.484  42.103   4.795  0.00  0.00    +0.159 C 
BRANCH 145 148
ATOM    146  C   LEU H  11     -32.679  44.212   6.032  0.00  0.00    +0.234 C 
ATOM    147  O   LEU H  11     -32.793  44.887   5.001  0.00  0.00    -0.274 OA
ATOM    148  N   LYS H  12     -32.524  42.887   6.023  0.00  0.00    -0.302 N 
ATOM    149  H   LYS H  12     -32.433  42.418   6.884  0.00  0.00    +0.150 HD
BRANCH 146 150
ATOM    150  CA  LEU H  11     -32.742  44.861   7.411  0.00  0.00    +0.159 C 
BRANCH 150 153
ATOM    151  C   GLU H  10     -30.694  46.160   7.478  0.00  0.00    +0.234 C 
ATOM    152  O   GLU H  10     -29.989  45.149   7.427  0.00  0.00    -0.274 OA
ATOM    153  N   LEU H  11     -32.015  46.121   7.436  0.00  0.00    -0.302 N 
ATOM    154  H   LEU H  11     -32.520  46.966   7.421  0.00  0.00    +0.150 HD
BRANCH 151 155
ATOM    155  CA  GLU H  10     -30.083  47.550   7.605  0.00  0.00    +0.159 C 
BRANCH 155 158
ATOM    156  C   GLY H   9     -29.060  47.583   9.823  0.00  0.00    +0.231 C 
ATOM    157  O   GLY H   9     -30.153  47.637  10.393  0.00  0.00    -0.274 OA
ATOM    158  N   GLU H  10     -28.938  47.508   8.501  0.00  0.00    -0.303 N 
ATOM    159  H   GLU H  10     -28.037  47.421   8.113  0.00  0.00    +0.149 HD
BRANCH 156 160
ATOM    160  CA  GLY H   9     -27.796  47.630  10.644  0.00  0.00    +0.200 C 
BRANCH 160 163
ATOM    161  C   ALA H   8     -26.272  49.093   9.413  0.00  0.00    +0.233 C 
ATOM    162  O   ALA H   8     -26.979  50.090   9.601  0.00  0.00    -0.274 OA
ATOM    163  N   GLY H   9     -26.595  47.880   9.871  0.00  0.00    -0.305 N 
ATOM    164  H   GLY H   9     -25.993  47.126   9.676  0.00  0.00    +0.149 HD
BRANCH 161 165
ATOM    165  CA  ALA H   8     -24.971  49.229   8.639  0.00  0.00    +0.156 C 
ATOM    166  CB  ALA H   8     -25.147  50.177   7.451  0.00  0.00    +0.038 C 
BRANCH 165 169
ATOM    167  C   SER H   7     -23.528  47.281   8.875  0.00  0.00    +0.236 C 
ATOM    168  O   SER H   7     -23.003  47.751   9.892  0.00  0.00    -0.274 OA
ATOM    169  N   ALA H   8     -24.465  47.939   8.191  0.00  0.00    -0.303 N 
ATOM    170  H   ALA H   8     -24.823  47.543   7.364  0.00  0.00    +0.149 HD
BRANCH 167 171
ATOM    171  CA  SER H   7     -23.110  45.910   8.370  0.00  0.00    +0.184 C 
BRANCH 171 174
ATOM    172  C   GLY H   6     -25.331  44.936   8.164  0.00  0.00    +0.231 C 
ATOM    173  O   GLY H   6     -25.642  45.280   9.307  0.00  0.00    -0.274 OA
ATOM    174  N   SER H   7     -24.167  45.275   7.589  0.00  0.00    -0.301 N 
ATOM    175  H   SER H   7     -24.025  45.094   6.632  0.00  0.00    +0.150 HD
BRANCH 172 176
ATOM    176  CA  GLY H   6     -26.252  44.096   7.297  0.00  0.00    +0.200 C 
BRANCH 176 179
ATOM    177  C   LEU H   5     -27.618  42.865   8.887  0.00  0.00    +0.234 C 
ATOM    178  O   LEU H   5     -26.695  42.094   9.184  0.00  0.00    -0.274 OA
ATOM    179  N   GLY H   6     -27.511  43.818   7.962  0.00  0.00    -0.305 N 
ATOM    180  H   GLY H   6     -28.306  44.347   7.724  0.00  0.00    +0.149 HD
BRANCH 177 181
ATOM    181  CA  LEU H   5     -28.979  42.729   9.550  0.00  0.00    +0.159 C 
BRANCH 181 184
ATOM    182  C   LEU H   4     -30.597  41.032   8.852  0.00  0.00    +0.234 C 
ATOM    183  O   LEU H   4     -31.296  41.859   8.255  0.00  0.00    -0.274 OA
ATOM    184  N   LEU H   5     -29.438  41.353   9.440  0.00  0.00    -0.302 N 
ATOM    185  H   LEU H   5     -28.877  40.634   9.810  0.00  0.00    +0.150 HD
BRANCH 182 186
ATOM    186  CA  LEU H   4     -30.998  39.562   8.940  0.00  0.00    +0.159 C 
BRANCH 186 189
ATOM    187  C   LEU H   3     -33.356  39.166   9.469  0.00  0.00    +0.234 C 
ATOM    188  O   LEU H   3     -33.155  39.119  10.686  0.00  0.00    -0.274 OA
ATOM    189  N   LEU H   4     -32.403  39.401   8.574  0.00  0.00    -0.302 N 
ATOM    190  H   LEU H   4     -32.654  39.470   7.625  0.00  0.00    +0.150 HD
BRANCH 187 191
ATOM    191  CA  LEU H   3     -34.755  38.937   8.925  0.00  0.00    +0.159 C 
BRANCH 191 194
ATOM    192  C   ASN H   2     -35.255  36.642   8.311  0.00  0.00    +0.234 C 
ATOM    193  O   ASN H   2     -35.200  36.920   7.111  0.00  0.00    -0.274 OA
ATOM    194  N   LEU H   3     -35.123  37.566   9.251  0.00  0.00    -0.302 N 
ATOM    195  H   LEU H   3     -35.277  37.320  10.192  0.00  0.00    +0.150 HD
BRANCH 192 196
ATOM    196  CA  ASN H   2     -35.527  35.212   8.750  0.00  0.00    +0.168 C 
BRANCH 196 199
ATOM    197  C   GLU H   1     -34.989  34.612  11.077  0.00  0.00    +0.234 C 
ATOM    198  O   GLU H   1     -33.924  34.062  10.760  0.00  0.00    -0.274 OA
ATOM    199  N   ASN H   2     -35.826  35.132  10.174  0.00  0.00    -0.302 N 
ATOM    200  H   ASN H   2     -36.692  35.480  10.488  0.00  0.00    +0.150 HD
BRANCH 197 201
ATOM    201  CA  GLU H   1     -35.367  34.715  12.554  0.00  0.00    +0.159 C 
BRANCH 201 204
ATOM    202  C   UNK H   0     -36.478  36.851  12.682  0.00  0.00    +0.234 C 
ATOM    203  O   UNK H   0     -35.415  37.402  12.395  0.00  0.00    -0.274 OA
ATOM    204  N   GLU H   1     -36.568  35.522  12.773  0.00  0.00    -0.302 N 
ATOM    205  H   GLU H   1     -37.428  35.092  12.984  0.00  0.00    +0.150 HD
BRANCH 202 209
ATOM    206  C   UNK H   0     -39.190  36.665  11.323  0.00  0.00    +0.216 C 
ATOM    207  O   UNK H   0     -38.267  36.662  10.504  0.00  0.00    -0.276 OA
ATOM    208  N   UNK H   0     -38.996  37.092  12.575  0.00  0.00    -0.290 N 
ATOM    209  C   UNK H   0     -37.710  37.729  12.909  0.00  0.00    +0.162 C 
ATOM    210  C   UNK H   0     -37.881  38.118  14.390  0.00  0.00    +0.033 C 
ATOM    211  C   UNK H   0     -39.385  38.428  14.493  0.00  0.00    +0.021 C 
ATOM    212  C   UNK H   0     -39.998  37.295  13.646  0.00  0.00    +0.108 C 
BRANCH 206 213
ATOM    213  C   UNK H   0     -40.591  36.217  10.921  0.00  0.00    +0.096 C 
BRANCH 213 214
ATOM    214  C   UNK H   0     -40.903  34.841  11.493  0.00  0.00    +0.009 C 
BRANCH 214 215
ATOM    215  C   UNK H   0     -40.020  33.738  10.895  0.00  0.00    +0.006 C 
BRANCH 215 216
ATOM    216  C   UNK H   0     -40.357  32.440  11.574  0.00  0.00    +0.051 C 
BRANCH 216 217
ATOM    217  C   UNK H   0     -39.658  31.271  10.948  0.00  0.00    +0.127 C 
BRANCH 217 218
ATOM    218  N   UNK H   0     -40.076  30.017  11.659  0.00  0.00    +0.219 N 
ATOM    219  H   UNK H   0     -39.825  30.086  12.645  0.00  0.00    +0.199 HD
ATOM    220  H   UNK H   0     -39.602  29.216  11.242  0.00  0.00    +0.199 HD
ATOM    221  H   UNK H   0     -41.085  29.897  11.572  0.00  0.00    +0.199 HD
ENDBRANCH 217 218
ENDBRANCH 216 217
ENDBRANCH 215 216
ENDBRANCH 214 215
ENDBRANCH 213 214
ENDBRANCH 206 213
ENDBRANCH 202 209
ENDBRANCH 201 204
BRANCH 201 222
ATOM    222  CB  GLU H   1     -35.560  33.323  13.183  0.00  0.00    +0.037 C 
BRANCH 222 223
ATOM    223  CG  GLU H   1     -36.882  32.713  12.798  0.00  0.00    +0.054 C 
BRANCH 223 224
ATOM    224  CD  GLU H   1     -37.929  32.889  13.913  0.00  0.00    +0.042 C 
ATOM    225  OE1 GLU H   1     -38.521  33.990  14.008  0.00  0.00    -0.550 OA
ATOM    226  OE2 GLU H   1     -38.214  31.908  14.640  0.00  0.00    -0.550 OA
ENDBRANCH 223 224
ENDBRANCH 222 223
ENDBRANCH 201 222
ENDBRANCH 197 201
ENDBRANCH 196 199
BRANCH 196 227
ATOM    227  CB  ASN H   2     -36.678  34.625   7.921  0.00  0.00    +0.127 C 
BRANCH 227 228
ATOM    228  CG  ASN H   2     -36.777  33.132   8.081  0.00  0.00    +0.213 C 
ATOM    229  OD1 ASN H   2     -35.766  32.471   8.381  0.00  0.00    -0.276 OA
ATOM    230  ND2 ASN H   2     -37.986  32.582   7.913  0.00  0.00    -0.329 N 
ATOM    231  H   ASN H   2     -38.756  33.148   7.676  0.00  0.00    +0.145 HD
ATOM    232  H   ASN H   2     -38.105  31.611   8.027  0.00  0.00    +0.145 HD
ENDBRANCH 227 228
ENDBRANCH 196 227
ENDBRANCH 192 196
ENDBRANCH 191 194
BRANCH 191 233
ATOM    233  CB  LEU H   3     -35.737  39.940   9.535  0.00  0.00    +0.034 C 
BRANCH 233 234
ATOM    234  CG  LEU H   3     -37.202  39.626   9.258  0.00  0.00    -0.015 C 
ATOM    235  CD2 LEU H   3     -38.159  40.624  10.008  0.00  0.00    +0.007 C 
ATOM    236  CD1 LEU H   3     -37.444  39.681   7.760  0.00  0.00    +0.007 C 
ENDBRANCH 233 234
ENDBRANCH 191 233
ENDBRANCH 187 191
ENDBRANCH 186 189
BRANCH 186 237
ATOM    237  CB  LEU H   4     -30.117  38.707   8.032  0.00  0.00    +0.034 C 
BRANCH 237 238
ATOM    238  CG  LEU H   4     -30.653  37.287   7.804  0.00  0.00    -0.015 C 
ATOM    239  CD1 LEU H   4     -29.662  36.486   6.936  0.00  0.00    +0.007 C 
ATOM    240  CD2 LEU H   4     -30.916  36.577   9.131  0.00  0.00    +0.007 C 
ENDBRANCH 237 238
ENDBRANCH 186 237
ENDBRANCH 182 186
ENDBRANCH 181 184
BRANCH 181 241
ATOM    241  CB  LEU H   5     -28.917  43.172  11.012  0.00  0.00    +0.034 C 
BRANCH 241 242
ATOM    242  CG  LEU H   5     -30.284  43.178  11.709  0.00  0.00    -0.015 C 
ATOM    243  CD2 LEU H   5     -30.111  43.395  13.201  0.00  0.00    +0.007 C 
ATOM    244  CD1 LEU H   5     -31.185  44.258  11.125  0.00  0.00    +0.007 C 
ENDBRANCH 241 242
ENDBRANCH 181 241
ENDBRANCH 177 181
ENDBRANCH 176 179
ENDBRANCH 172 176
ENDBRANCH 171 174
BRANCH 171 245
ATOM    245  CB  SER H   7     -21.824  46.029   7.544  0.00  0.00    +0.187 C 
BRANCH 245 246
ATOM    246  OG  SER H   7     -22.046  46.816   6.387  0.00  0.00    -0.393 OA
ATOM    247  H   SER H   7     -22.326  47.707   6.651  0.00  0.00    +0.209 HD
ENDBRANCH 245 246
ENDBRANCH 171 245
ENDBRANCH 167 171
ENDBRANCH 165 169
ENDBRANCH 161 165
ENDBRANCH 160 163
ENDBRANCH 156 160
ENDBRANCH 155 158
BRANCH 155 248
ATOM    248  CB  GLU H  10     -29.664  48.084   6.226  0.00  0.00    +0.037 C 
BRANCH 248 249
ATOM    249  CG  GLU H  10     -28.843  47.127   5.360  0.00  0.00    +0.054 C 
BRANCH 249 250
ATOM    250  CD  GLU H  10     -27.335  47.201   5.597  0.00  0.00    +0.042 C 
ATOM    251  OE2 GLU H  10     -26.897  47.526   6.722  0.00  0.00    -0.550 OA
ATOM    252  OE1 GLU H  10     -26.578  46.902   4.649  0.00  0.00    -0.550 OA
ENDBRANCH 249 250
ENDBRANCH 248 249
ENDBRANCH 155 248
ENDBRANCH 151 155
ENDBRANCH 150 153
BRANCH 150 253
ATOM    253  CB  LEU H  11     -34.193  45.119   7.817  0.00  0.00    +0.034 C 
BRANCH 253 254
ATOM    254  CG  LEU H  11     -35.142  43.942   7.886  0.00  0.00    -0.015 C 
ATOM    255  CD2 LEU H  11     -36.155  44.238   8.995  0.00  0.00    +0.007 C 
ATOM    256  CD1 LEU H  11     -35.836  43.734   6.527  0.00  0.00    +0.007 C 
ENDBRANCH 253 254
ENDBRANCH 150 253
ENDBRANCH 146 150
ENDBRANCH 145 148
BRANCH 145 257
ATOM    257  CB  LYS H  12     -31.044  41.687   4.462  0.00  0.00    +0.032 C 
BRANCH 257 258
ATOM    258  CG  LYS H  12     -30.254  42.869   3.850  0.00  0.00    +0.007 C 
BRANCH 258 259
ATOM    259  CD  LYS H  12     -28.798  42.620   3.817  0.00  0.00    +0.051 C 
BRANCH 259 260
ATOM    260  CE  LYS H  12     -28.025  43.893   3.515  0.00  0.00    +0.127 C 
BRANCH 260 261
ATOM    261  NZ  LYS H  12     -27.911  44.098   2.041  0.00  0.00    +0.219 N 
ATOM    262  H   LYS H  12     -28.844  44.181   1.636  0.00  0.00    +0.199 HD
ATOM    263  H   LYS H  12     -27.428  43.302   1.623  0.00  0.00    +0.199 HD
ATOM    264  H   LYS H  12     -27.383  44.951   1.856  0.00  0.00    +0.199 HD
ENDBRANCH 260 261
ENDBRANCH 259 260
ENDBRANCH 258 259
ENDBRANCH 257 258
ENDBRANCH 145 257
ENDBRANCH 141 145
ENDBRANCH 140 143
BRANCH 140 265
ATOM    265  CB  ILE H  13     -36.511  39.833   3.249  0.00  0.00    +0.015 C 
ATOM    266  CG2 ILE H  13     -37.402  38.585   3.273  0.00  0.00    +0.010 C 
BRANCH 265 267
ATOM    267  CG1 ILE H  13     -37.248  41.086   3.748  0.00  0.00    +0.002 C 
ATOM    268  CD1 ILE H  13     -38.688  41.242   3.168  0.00  0.00    +0.004 C 
ENDBRANCH 265 267
ENDBRANCH 140 265
ENDBRANCH 136 140
ENDBRANCH   1 138
TORSDOF 110
REMARK  Name = /Users/wangyang/Desktop/Breast_cancer_brain_metastasis/wang_Gene/AIDD/15_Protein_ligand_docking/data_7ztl/protein.pdb
REMARK  1290 active torsions:
REMARK  status: ('A' for Active; 'I' for Inactive)
REMARK    1  A    between atoms: N_1  and  CA_2
REMARK    2  A    between atoms: CA_2  and  C_3
REMARK    3  A    between atoms: N_5  and  CA_6
REMARK    4  A    between atoms: CA_6  and  C_7
REMARK    5  A    between atoms: CA_6  and  CB_9
REMARK    6  A    between atoms: N_10  and  CA_11
REMARK    7  A    between atoms: CA_11  and  C_12
REMARK    8  A    between atoms: CA_11  and  CB_14
REMARK    9  A    between atoms: CB_14  and  CG_15
REMARK   10  A    between atoms: N_24  and  CA_25
REMARK   11  A    between atoms: CA_25  and  C_26
REMARK   12  A    between atoms: CA_25  and  CB_28
REMARK   13  A    between atoms: N_29  and  CA_30
REMARK   14  A    between atoms: CA_30  and  C_31
REMARK   15  A    between atoms: CA_30  and  CB_33
REMARK   16  A    between atoms: CB_33  and  CG_34
REMARK   17  A    between atoms: CG_34  and  CD1_35
REMARK   18  A    between atoms: CG_34  and  CD2_36
REMARK   19  A    between atoms: N_37  and  CA_38
REMARK   20  A    between atoms: CA_38  and  C_39
REMARK   21  A    between atoms: CA_38  and  CB_41
REMARK   22  A    between atoms: CB_41  and  CG_42
REMARK   23  A    between atoms: CG_42  and  CD_43
REMARK   24  A    between atoms: N_46  and  CA_47
REMARK   25  A    between atoms: CA_47  and  C_48
REMARK   26  A    between atoms: CA_47  and  CB_50
REMARK   27  A    between atoms: CB_50  and  CG_51
REMARK   28  A    between atoms: N_54  and  CA_55
REMARK   29  A    between atoms: CA_55  and  C_56
REMARK   30  A    between atoms: CA_55  and  CB_58
REMARK   31  A    between atoms: CB_58  and  CG_59
REMARK   32  A    between atoms: N_65  and  CA_66
REMARK   33  A    between atoms: CA_66  and  C_67
REMARK   34  A    between atoms: CA_66  and  CB_69
REMARK   35  A    between atoms: CB_69  and  CG_70
REMARK   36  A    between atoms: CG_70  and  CD_71
REMARK   37  A    between atoms: N_74  and  CA_75
REMARK   38  A    between atoms: CA_75  and  C_76
REMARK   39  A    between atoms: CA_75  and  CB_78
REMARK   40  A    between atoms: CB_78  and  CG1_79
REMARK   41  A    between atoms: CB_78  and  CG2_80
REMARK   42  A    between atoms: CG1_79  and  CD1_81
REMARK   43  A    between atoms: N_82  and  CA_83
REMARK   44  A    between atoms: CA_83  and  C_84
REMARK   45  A    between atoms: N_86  and  CA_87
REMARK   46  A    between atoms: CA_87  and  C_88
REMARK   47  A    between atoms: CA_87  and  CB_90
REMARK   48  A    between atoms: CB_90  and  CG_91
REMARK   49  A    between atoms: CG_91  and  CD_92
REMARK   50  A    between atoms: CD_92  and  NE_93
REMARK   51  A    between atoms: CA_98  and  C_99
REMARK   52  A    between atoms: N_104  and  CA_105
REMARK   53  A    between atoms: CA_105  and  C_106
REMARK   54  A    between atoms: CA_105  and  CB_108
REMARK   55  A    between atoms: CB_108  and  CG_109
REMARK   56  A    between atoms: CG_109  and  CD1_110
REMARK   57  A    between atoms: CG_109  and  CD2_111
REMARK   58  A    between atoms: N_112  and  CA_113
REMARK   59  A    between atoms: CA_113  and  C_114
REMARK   60  A    between atoms: N_116  and  C_117
REMARK   61  A    between atoms: C_117  and  C_118
REMARK   62  A    between atoms: C_117  and  C_120
REMARK   63  A    between atoms: C_120  and  C_121
REMARK   64  A    between atoms: C_121  and  C_122
REMARK   65  A    between atoms: N_123  and  CA_124
REMARK   66  A    between atoms: CA_124  and  C_125
REMARK   67  A    between atoms: N_127  and  CA_128
REMARK   68  A    between atoms: CA_128  and  C_129
REMARK   69  A    between atoms: CA_128  and  CB_131
REMARK   70  A    between atoms: CB_131  and  CG_132
REMARK   71  A    between atoms: CG_132  and  CD_133
REMARK   72  A    between atoms: CD_133  and  CE_134
REMARK   73  A    between atoms: CE_134  and  NZ_135
REMARK   74  A    between atoms: N_136  and  CA_137
REMARK   75  A    between atoms: CA_137  and  C_138
REMARK   76  A    between atoms: CA_137  and  CB_140
REMARK   77  A    between atoms: CB_140  and  CG_141
REMARK   78  A    between atoms: N_147  and  CA_148
REMARK   79  A    between atoms: CA_148  and  C_149
REMARK   80  A    between atoms: N_151  and  CA_152
REMARK   81  A    between atoms: CA_152  and  C_153
REMARK   82  A    between atoms: CA_152  and  CB_155
REMARK   83  A    between atoms: CB_155  and  CG_156
REMARK   84  A    between atoms: N_159  and  CA_160
REMARK   85  A    between atoms: CA_160  and  C_161
REMARK   86  A    between atoms: CA_160  and  CB_163
REMARK   87  A    between atoms: CB_163  and  CG1_164
REMARK   88  A    between atoms: CB_163  and  CG2_165
REMARK   89  A    between atoms: N_166  and  CA_167
REMARK   90  A    between atoms: CA_167  and  C_168
REMARK   91  A    between atoms: CA_167  and  CB_170
REMARK   92  A    between atoms: CB_170  and  CG_171
REMARK   93  A    between atoms: CZ_176  and  OH_177
REMARK   94  A    between atoms: N_178  and  CA_179
REMARK   95  A    between atoms: CA_179  and  C_180
REMARK   96  A    between atoms: CA_179  and  CB_182
REMARK   97  A    between atoms: CB_182  and  CG_183
REMARK   98  A    between atoms: CG_183  and  CD1_184
REMARK   99  A    between atoms: CG_183  and  CD2_185
REMARK  100  A    between atoms: N_186  and  CA_187
REMARK  101  A    between atoms: CA_187  and  C_188
REMARK  102  A    between atoms: CA_187  and  CB_190
REMARK  103  A    between atoms: N_191  and  CA_192
REMARK  104  A    between atoms: CA_192  and  C_193
REMARK  105  A    between atoms: CA_192  and  CB_195
REMARK  106  A    between atoms: CB_195  and  CG_196
REMARK  107  A    between atoms: CG_196  and  CD_197
REMARK  108  A    between atoms: CD_197  and  NE_198
REMARK  109  A    between atoms: N_202  and  CA_203
REMARK  110  A    between atoms: CA_203  and  C_204
REMARK  111  A    between atoms: CA_203  and  CB_206
REMARK  112  A    between atoms: CB_206  and  CG_207
REMARK  113  A    between atoms: CG_207  and  CD_208
REMARK  114  A    between atoms: N_211  and  CA_212
REMARK  115  A    between atoms: CA_212  and  C_213
REMARK  116  A    between atoms: CA_212  and  CB_215
REMARK  117  A    between atoms: CB_215  and  CG_216
REMARK  118  A    between atoms: CG_216  and  CD_217
REMARK  119  A    between atoms: CD_217  and  CE_218
REMARK  120  A    between atoms: CE_218  and  NZ_219
REMARK  121  A    between atoms: N_220  and  CA_221
REMARK  122  A    between atoms: CA_221  and  C_222
REMARK  123  A    between atoms: CA_221  and  CB_224
REMARK  124  A    between atoms: N_225  and  CA_226
REMARK  125  A    between atoms: CA_226  and  C_227
REMARK  126  A    between atoms: CA_226  and  CB_229
REMARK  127  A    between atoms: CB_229  and  OG_230
REMARK  128  A    between atoms: N_231  and  CA_232
REMARK  129  A    between atoms: CA_232  and  C_233
REMARK  130  A    between atoms: CA_232  and  CB_235
REMARK  131  A    between atoms: CB_235  and  CG_236
REMARK  132  A    between atoms: CG_236  and  CD_237
REMARK  133  A    between atoms: CD_237  and  CE_238
REMARK  134  A    between atoms: CE_238  and  NZ_239
REMARK  135  A    between atoms: N_240  and  CA_241
REMARK  136  A    between atoms: CA_241  and  C_242
REMARK  137  A    between atoms: CA_241  and  CB_244
REMARK  138  A    between atoms: CB_244  and  CG_245
REMARK  139  A    between atoms: N_251  and  CA_252
REMARK  140  A    between atoms: CA_252  and  C_253
REMARK  141  A    between atoms: CA_252  and  CB_255
REMARK  142  A    between atoms: CB_255  and  CG1_256
REMARK  143  A    between atoms: CB_255  and  CG2_257
REMARK  144  A    between atoms: CG1_256  and  CD1_258
REMARK  145  A    between atoms: N_259  and  CA_260
REMARK  146  A    between atoms: CA_260  and  C_261
REMARK  147  A    between atoms: CA_260  and  CB_263
REMARK  148  A    between atoms: CB_263  and  CG_264
REMARK  149  A    between atoms: CG_264  and  CD1_265
REMARK  150  A    between atoms: CG_264  and  CD2_266
REMARK  151  A    between atoms: N_267  and  CA_268
REMARK  152  A    between atoms: CA_268  and  C_269
REMARK  153  A    between atoms: CA_268  and  CB_271
REMARK  154  A    between atoms: N_272  and  CA_273
REMARK  155  A    between atoms: CA_273  and  C_274
REMARK  156  A    between atoms: CA_273  and  CB_276
REMARK  157  A    between atoms: CB_276  and  CG_277
REMARK  158  A    between atoms: CG_277  and  CD2_278
REMARK  159  A    between atoms: CG_277  and  CD1_279
REMARK  160  A    between atoms: N_280  and  CA_281
REMARK  161  A    between atoms: CA_281  and  C_282
REMARK  162  A    between atoms: CA_281  and  CB_284
REMARK  163  A    between atoms: CB_284  and  CG_285
REMARK  164  A    between atoms: CG_285  and  CD_286
REMARK  165  A    between atoms: CD_286  and  CE_287
REMARK  166  A    between atoms: CE_287  and  NZ_288
REMARK  167  A    between atoms: N_289  and  CA_290
REMARK  168  A    between atoms: CA_290  and  C_291
REMARK  169  A    between atoms: CA_290  and  CB_293
REMARK  170  A    between atoms: CB_293  and  CG2_294
REMARK  171  A    between atoms: CB_293  and  CG1_295
REMARK  172  A    between atoms: N_296  and  CA_297
REMARK  173  A    between atoms: CA_297  and  C_298
REMARK  174  A    between atoms: CA_297  and  CB_300
REMARK  175  A    between atoms: CB_300  and  CG_301
REMARK  176  A    between atoms: CG_301  and  CD1_302
REMARK  177  A    between atoms: CG_301  and  CD2_303
REMARK  178  A    between atoms: N_304  and  CA_305
REMARK  179  A    between atoms: CA_305  and  C_306
REMARK  180  A    between atoms: CA_305  and  CB_308
REMARK  181  A    between atoms: CB_308  and  CG_309
REMARK  182  A    between atoms: N_315  and  CA_316
REMARK  183  A    between atoms: CA_316  and  C_317
REMARK  184  A    between atoms: CA_316  and  CB_319
REMARK  185  A    between atoms: CB_319  and  CG_320
REMARK  186  A    between atoms: CG_320  and  CD_321
REMARK  187  A    between atoms: CD_321  and  CE_322
REMARK  188  A    between atoms: CE_322  and  NZ_323
REMARK  189  A    between atoms: N_324  and  CA_325
REMARK  190  A    between atoms: CA_325  and  C_326
REMARK  191  A    between atoms: CA_325  and  CB_328
REMARK  192  A    between atoms: N_329  and  CA_330
REMARK  193  A    between atoms: CA_330  and  C_331
REMARK  194  A    between atoms: CA_330  and  CB_333
REMARK  195  A    between atoms: CB_333  and  CG_334
REMARK  196  A    between atoms: CG_334  and  CD_335
REMARK  197  A    between atoms: N_338  and  CA_339
REMARK  198  A    between atoms: CA_339  and  C_340
REMARK  199  A    between atoms: CA_339  and  CB_342
REMARK  200  A    between atoms: CB_342  and  CG_343
REMARK  201  A    between atoms: CG_343  and  CD1_344
REMARK  202  A    between atoms: CG_343  and  CD2_345
REMARK  203  A    between atoms: N_346  and  CA_347
REMARK  204  A    between atoms: CA_347  and  C_348
REMARK  205  A    between atoms: CA_347  and  CB_350
REMARK  206  A    between atoms: CB_350  and  CG_351
REMARK  207  A    between atoms: CG_351  and  CD_352
REMARK  208  A    between atoms: N_355  and  C_356
REMARK  209  A    between atoms: C_356  and  C_357
REMARK  210  A    between atoms: C_356  and  C_359
REMARK  211  A    between atoms: C_359  and  C_360
REMARK  212  A    between atoms: N_361  and  CA_362
REMARK  213  A    between atoms: CA_362  and  C_363
REMARK  214  A    between atoms: CA_362  and  CB_365
REMARK  215  A    between atoms: N_366  and  CA_367
REMARK  216  A    between atoms: CA_367  and  C_368
REMARK  217  A    between atoms: N_370  and  CA_371
REMARK  218  A    between atoms: CA_371  and  C_372
REMARK  219  A    between atoms: CA_371  and  CB_374
REMARK  220  A    between atoms: CB_374  and  CG2_375
REMARK  221  A    between atoms: CB_374  and  CG1_376
REMARK  222  A    between atoms: N_377  and  CA_378
REMARK  223  A    between atoms: CA_378  and  C_379
REMARK  224  A    between atoms: CA_378  and  CB_381
REMARK  225  A    between atoms: CB_381  and  CG_382
REMARK  226  A    between atoms: CG_382  and  CD_383
REMARK  227  A    between atoms: N_386  and  CA_387
REMARK  228  A    between atoms: CA_387  and  C_388
REMARK  229  A    between atoms: CA_387  and  CB_390
REMARK  230  A    between atoms: CB_390  and  CG_391
REMARK  231  A    between atoms: N_396  and  CA_397
REMARK  232  A    between atoms: CA_397  and  C_398
REMARK  233  A    between atoms: CA_397  and  CB_400
REMARK  234  A    between atoms: CB_400  and  CG_401
REMARK  235  A    between atoms: CG_401  and  CD_402
REMARK  236  A    between atoms: N_405  and  CA_406
REMARK  237  A    between atoms: CA_406  and  C_407
REMARK  238  A    between atoms: CA_406  and  CB_409
REMARK  239  A    between atoms: CB_409  and  CG_410
REMARK  240  A    between atoms: CG_410  and  CD2_411
REMARK  241  A    between atoms: CG_410  and  CD1_412
REMARK  242  A    between atoms: N_413  and  CA_414
REMARK  243  A    between atoms: CA_414  and  C_415
REMARK  244  A    between atoms: CA_414  and  CB_417
REMARK  245  A    between atoms: CB_417  and  CG_418
REMARK  246  A    between atoms: CG_418  and  CD_419
REMARK  247  A    between atoms: CD_419  and  NE_420
REMARK  248  A    between atoms: N_424  and  CA_425
REMARK  249  A    between atoms: CA_425  and  C_426
REMARK  250  A    between atoms: CA_425  and  CB_428
REMARK  251  A    between atoms: CB_428  and  CG_429
REMARK  252  A    between atoms: CG_429  and  CD_430
REMARK  253  A    between atoms: CD_430  and  NE_431
REMARK  254  A    between atoms: N_435  and  CA_436
REMARK  255  A    between atoms: CA_436  and  C_437
REMARK  256  A    between atoms: CA_436  and  CB_439
REMARK  257  A    between atoms: CB_439  and  CG_440
REMARK  258  A    between atoms: CG_440  and  CD_441
REMARK  259  A    between atoms: N_444  and  CA_445
REMARK  260  A    between atoms: CA_445  and  C_446
REMARK  261  A    between atoms: CA_445  and  CB_448
REMARK  262  A    between atoms: CB_448  and  CG1_449
REMARK  263  A    between atoms: CB_448  and  CG2_450
REMARK  264  A    between atoms: N_451  and  C_452
REMARK  265  A    between atoms: C_452  and  C_453
REMARK  266  A    between atoms: C_452  and  C_455
REMARK  267  A    between atoms: C_455  and  C_456
REMARK  268  A    between atoms: N_457  and  CA_458
REMARK  269  A    between atoms: CA_458  and  C_459
REMARK  270  A    between atoms: CA_458  and  CB_461
REMARK  271  A    between atoms: CB_461  and  CG1_462
REMARK  272  A    between atoms: CB_461  and  CG2_463
REMARK  273  A    between atoms: CG1_462  and  CD1_464
REMARK  274  A    between atoms: N_465  and  CA_466
REMARK  275  A    between atoms: CA_466  and  C_467
REMARK  276  A    between atoms: CA_466  and  CB_469
REMARK  277  A    between atoms: CB_469  and  CG_470
REMARK  278  A    between atoms: CG_470  and  CD_471
REMARK  279  A    between atoms: N_474  and  C_475
REMARK  280  A    between atoms: C_475  and  C_476
REMARK  281  A    between atoms: C_475  and  C_478
REMARK  282  A    between atoms: C_478  and  O_479
REMARK  283  A    between atoms: N_480  and  C_481
REMARK  284  A    between atoms: C_481  and  C_482
REMARK  285  A    between atoms: C_481  and  C_484
REMARK  286  A    between atoms: C_484  and  C_485
REMARK  287  A    between atoms: N_490  and  C_491
REMARK  288  A    between atoms: C_491  and  C_492
REMARK  289  A    between atoms: C_491  and  C_494
REMARK  290  A    between atoms: C_494  and  C_495
REMARK  291  A    between atoms: C_495  and  C_496
REMARK  292  A    between atoms: C_495  and  C_497
REMARK  293  A    between atoms: N_498  and  C_499
REMARK  294  A    between atoms: C_499  and  C_500
REMARK  295  A    between atoms: C_499  and  C_502
REMARK  296  A    between atoms: C_502  and  C_503
REMARK  297  A    between atoms: C_503  and  C_504
REMARK  298  A    between atoms: C_504  and  N_505
REMARK  299  A    between atoms: N_509  and  C_510
REMARK  300  A    between atoms: C_510  and  C_511
REMARK  301  A    between atoms: C_510  and  C_513
REMARK  302  A    between atoms: C_513  and  C_514
REMARK  303  A    between atoms: C_520  and  C_521
REMARK  304  A    between atoms: N_526  and  C_527
REMARK  305  A    between atoms: C_527  and  C_528
REMARK  306  A    between atoms: C_527  and  C_530
REMARK  307  A    between atoms: C_530  and  C_531
REMARK  308  A    between atoms: N_534  and  C_535
REMARK  309  A    between atoms: C_535  and  C_536
REMARK  310  A    between atoms: C_535  and  C_538
REMARK  311  A    between atoms: C_538  and  C_539
REMARK  312  A    between atoms: C_538  and  C_540
REMARK  313  A    between atoms: C_539  and  C_541
REMARK  314  A    between atoms: N_542  and  C_543
REMARK  315  A    between atoms: C_543  and  C_544
REMARK  316  A    between atoms: C_543  and  C_546
REMARK  317  A    between atoms: C_546  and  C_547
REMARK  318  A    between atoms: C_547  and  C_548
REMARK  319  A    between atoms: C_547  and  C_549
REMARK  320  A    between atoms: N_550  and  C_551
REMARK  321  A    between atoms: C_551  and  C_552
REMARK  322  A    between atoms: C_551  and  C_554
REMARK  323  A    between atoms: C_554  and  C_555
REMARK  324  A    between atoms: C_555  and  C_556
REMARK  325  A    between atoms: C_556  and  N_557
REMARK  326  A    between atoms: N_561  and  C_562
REMARK  327  A    between atoms: C_562  and  C_567
REMARK  328  A    between atoms: C_563  and  C_564
REMARK  329  A    between atoms: C_568  and  C_569
REMARK  330  A    between atoms: C_568  and  C_571
REMARK  331  A    between atoms: C_569  and  C_572
REMARK  332  A    between atoms: C_569  and  C_573
REMARK  333  A    between atoms: C_570  and  C_573
REMARK  334  A    between atoms: N_574  and  CA_575
REMARK  335  A    between atoms: CA_575  and  C_576
REMARK  336  A    between atoms: CA_575  and  CB_578
REMARK  337  A    between atoms: CB_578  and  CG_579
REMARK  338  A    between atoms: CZ_584  and  OH_585
REMARK  339  A    between atoms: N_586  and  CA_587
REMARK  340  A    between atoms: CA_587  and  C_588
REMARK  341  A    between atoms: N_590  and  CA_591
REMARK  342  A    between atoms: CA_591  and  C_592
REMARK  343  A    between atoms: CA_591  and  CB_594
REMARK  344  A    between atoms: CB_594  and  CG_595
REMARK  345  A    between atoms: CZ_600  and  OH_601
REMARK  346  A    between atoms: N_602  and  CA_603
REMARK  347  A    between atoms: CA_603  and  C_604
REMARK  348  A    between atoms: CA_603  and  CB_606
REMARK  349  A    between atoms: CB_606  and  CG_607
REMARK  350  A    between atoms: N_613  and  CA_614
REMARK  351  A    between atoms: CA_614  and  C_615
REMARK  352  A    between atoms: CA_614  and  CB_617
REMARK  353  A    between atoms: CB_617  and  CG_618
REMARK  354  A    between atoms: N_623  and  CA_624
REMARK  355  A    between atoms: CA_624  and  C_625
REMARK  356  A    between atoms: CA_624  and  CB_627
REMARK  357  A    between atoms: CB_627  and  CG_628
REMARK  358  A    between atoms: N_631  and  CA_632
REMARK  359  A    between atoms: CA_632  and  C_633
REMARK  360  A    between atoms: CA_632  and  CB_635
REMARK  361  A    between atoms: N_636  and  CA_637
REMARK  362  A    between atoms: CA_637  and  C_638
REMARK  363  A    between atoms: CA_637  and  CB_640
REMARK  364  A    between atoms: CB_640  and  OG1_641
REMARK  365  A    between atoms: CB_640  and  CG2_642
REMARK  366  A    between atoms: N_643  and  CA_644
REMARK  367  A    between atoms: CA_644  and  C_645
REMARK  368  A    between atoms: CA_644  and  CB_647
REMARK  369  A    between atoms: CB_647  and  CG_648
REMARK  370  A    between atoms: CG_648  and  CD_649
REMARK  371  A    between atoms: CD_649  and  NE_650
REMARK  372  A    between atoms: N_654  and  CA_655
REMARK  373  A    between atoms: CA_655  and  C_656
REMARK  374  A    between atoms: CA_655  and  CB_658
REMARK  375  A    between atoms: CB_658  and  CG1_659
REMARK  376  A    between atoms: CB_658  and  CG2_660
REMARK  377  A    between atoms: N_661  and  CA_662
REMARK  378  A    between atoms: CA_662  and  C_663
REMARK  379  A    between atoms: CA_662  and  CB_665
REMARK  380  A    between atoms: CB_665  and  CG_666
REMARK  381  A    between atoms: CZ_671  and  OH_672
REMARK  382  A    between atoms: N_673  and  CA_674
REMARK  383  A    between atoms: CA_674  and  C_675
REMARK  384  A    between atoms: CA_674  and  CB_677
REMARK  385  A    between atoms: CB_677  and  CG_678
REMARK  386  A    between atoms: CG_678  and  CD2_679
REMARK  387  A    between atoms: CG_678  and  CD1_680
REMARK  388  A    between atoms: N_681  and  CA_682
REMARK  389  A    between atoms: CA_682  and  C_683
REMARK  390  A    between atoms: CA_682  and  CB_685
REMARK  391  A    between atoms: CB_685  and  CG1_686
REMARK  392  A    between atoms: CB_685  and  CG2_687
REMARK  393  A    between atoms: CG1_686  and  CD1_688
REMARK  394  A    between atoms: N_689  and  CA_690
REMARK  395  A    between atoms: CA_690  and  C_691
REMARK  396  A    between atoms: CA_690  and  CB_693
REMARK  397  A    between atoms: CB_693  and  CG_694
REMARK  398  A    between atoms: CG_694  and  CD2_695
REMARK  399  A    between atoms: CG_694  and  CD1_696
REMARK  400  A    between atoms: N_697  and  CA_698
REMARK  401  A    between atoms: CA_698  and  C_699
REMARK  402  A    between atoms: CA_698  and  CB_701
REMARK  403  A    between atoms: CB_701  and  CG_702
REMARK  404  A    between atoms: CG_702  and  CD_703
REMARK  405  A    between atoms: N_706  and  CA_707
REMARK  406  A    between atoms: CA_707  and  C_708
REMARK  407  A    between atoms: CA_707  and  CB_710
REMARK  408  A    between atoms: CB_710  and  CG_711
REMARK  409  A    between atoms: CZ_716  and  OH_717
REMARK  410  A    between atoms: N_718  and  CA_719
REMARK  411  A    between atoms: CA_719  and  C_720
REMARK  412  A    between atoms: CA_719  and  CB_722
REMARK  413  A    between atoms: CA_724  and  C_725
REMARK  414  A    between atoms: N_730  and  CA_731
REMARK  415  A    between atoms: CA_731  and  C_732
REMARK  416  A    between atoms: CA_731  and  CB_734
REMARK  417  A    between atoms: CB_734  and  CG_735
REMARK  418  A    between atoms: CG_735  and  CD1_736
REMARK  419  A    between atoms: CG_735  and  CD2_737
REMARK  420  A    between atoms: N_738  and  CA_739
REMARK  421  A    between atoms: CA_739  and  C_740
REMARK  422  A    between atoms: N_742  and  CA_743
REMARK  423  A    between atoms: CA_743  and  C_744
REMARK  424  A    between atoms: CA_743  and  CB_746
REMARK  425  A    between atoms: CB_746  and  OG1_747
REMARK  426  A    between atoms: CB_746  and  CG2_748
REMARK  427  A    between atoms: N_749  and  CA_750
REMARK  428  A    between atoms: CA_750  and  C_751
REMARK  429  A    between atoms: CA_750  and  CB_753
REMARK  430  A    between atoms: CB_753  and  CG2_754
REMARK  431  A    between atoms: CB_753  and  CG1_755
REMARK  432  A    between atoms: N_756  and  CA_757
REMARK  433  A    between atoms: CA_757  and  C_758
REMARK  434  A    between atoms: CA_757  and  CB_760
REMARK  435  A    between atoms: CB_760  and  CG_761
REMARK  436  A    between atoms: CZ_766  and  OH_767
REMARK  437  A    between atoms: N_768  and  C_769
REMARK  438  A    between atoms: C_769  and  C_770
REMARK  439  A    between atoms: C_769  and  C_772
REMARK  440  A    between atoms: C_772  and  C_773
REMARK  441  A    between atoms: N_774  and  CA_775
REMARK  442  A    between atoms: CA_775  and  C_776
REMARK  443  A    between atoms: CA_775  and  CB_778
REMARK  444  A    between atoms: CB_778  and  CG_779
REMARK  445  A    between atoms: CG_779  and  CD_780
REMARK  446  A    between atoms: N_783  and  CA_784
REMARK  447  A    between atoms: CA_784  and  C_785
REMARK  448  A    between atoms: CA_784  and  CB_787
REMARK  449  A    between atoms: CB_787  and  CG_788
REMARK  450  A    between atoms: CG_788  and  CD2_789
REMARK  451  A    between atoms: CG_788  and  CD1_790
REMARK  452  A    between atoms: N_791  and  CA_792
REMARK  453  A    between atoms: CA_792  and  C_793
REMARK  454  A    between atoms: CA_792  and  CB_795
REMARK  455  A    between atoms: CB_795  and  CG_796
REMARK  456  A    between atoms: CG_796  and  CD_797
REMARK  457  A    between atoms: N_800  and  CA_801
REMARK  458  A    between atoms: CA_801  and  C_802
REMARK  459  A    between atoms: CA_801  and  CB_804
REMARK  460  A    between atoms: CB_804  and  CG_805
REMARK  461  A    between atoms: CG_805  and  CD_806
REMARK  462  A    between atoms: CD_806  and  CE_807
REMARK  463  A    between atoms: CE_807  and  NZ_808
REMARK  464  A    between atoms: N_809  and  CA_810
REMARK  465  A    between atoms: CA_810  and  C_811
REMARK  466  A    between atoms: CA_810  and  CB_813
REMARK  467  A    between atoms: CB_813  and  CG_814
REMARK  468  A    between atoms: CG_814  and  CD1_815
REMARK  469  A    between atoms: CG_814  and  CD2_816
REMARK  470  A    between atoms: N_817  and  CA_818
REMARK  471  A    between atoms: CA_818  and  C_819
REMARK  472  A    between atoms: CA_818  and  CB_821
REMARK  473  A    between atoms: CB_821  and  OG_822
REMARK  474  A    between atoms: N_823  and  CA_824
REMARK  475  A    between atoms: CA_824  and  C_825
REMARK  476  A    between atoms: CA_824  and  CB_827
REMARK  477  A    between atoms: CB_827  and  CG_828
REMARK  478  A    between atoms: CG_828  and  CD_829
REMARK  479  A    between atoms: CD_829  and  CE_830
REMARK  480  A    between atoms: CE_830  and  NZ_831
REMARK  481  A    between atoms: N_832  and  CA_833
REMARK  482  A    between atoms: CA_833  and  C_834
REMARK  483  A    between atoms: CA_833  and  CB_836
REMARK  484  A    between atoms: CB_836  and  CG_837
REMARK  485  A    between atoms: N_843  and  CA_844
REMARK  486  A    between atoms: CA_844  and  C_845
REMARK  487  A    between atoms: CA_844  and  CB_847
REMARK  488  A    between atoms: CB_847  and  CG_848
REMARK  489  A    between atoms: N_851  and  CA_852
REMARK  490  A    between atoms: CA_852  and  C_853
REMARK  491  A    between atoms: CA_852  and  CB_855
REMARK  492  A    between atoms: CB_855  and  CG_856
REMARK  493  A    between atoms: CG_856  and  CD_857
REMARK  494  A    between atoms: N_860  and  CA_861
REMARK  495  A    between atoms: CA_861  and  C_862
REMARK  496  A    between atoms: CA_861  and  CB_864
REMARK  497  A    between atoms: CB_864  and  CG_865
REMARK  498  A    between atoms: CG_865  and  CD_866
REMARK  499  A    between atoms: N_869  and  CA_870
REMARK  500  A    between atoms: CA_870  and  C_871
REMARK  501  A    between atoms: CA_870  and  CB_873
REMARK  502  A    between atoms: CB_873  and  CG_874
REMARK  503  A    between atoms: CG_874  and  CD_875
REMARK  504  A    between atoms: CD_875  and  NE_876
REMARK  505  A    between atoms: N_880  and  CA_881
REMARK  506  A    between atoms: CA_881  and  C_882
REMARK  507  A    between atoms: CA_881  and  CB_884
REMARK  508  A    between atoms: CB_884  and  OG1_885
REMARK  509  A    between atoms: CB_884  and  CG2_886
REMARK  510  A    between atoms: N_887  and  CA_888
REMARK  511  A    between atoms: CA_888  and  C_889
REMARK  512  A    between atoms: CA_888  and  CB_891
REMARK  513  A    between atoms: N_892  and  CA_893
REMARK  514  A    between atoms: CA_893  and  C_894
REMARK  515  A    between atoms: CA_893  and  CB_896
REMARK  516  A    between atoms: CB_896  and  OG1_897
REMARK  517  A    between atoms: CB_896  and  CG2_898
REMARK  518  A    between atoms: N_899  and  CA_900
REMARK  519  A    between atoms: CA_900  and  C_901
REMARK  520  A    between atoms: CA_900  and  CB_903
REMARK  521  A    between atoms: CB_903  and  CG_904
REMARK  522  A    between atoms: CZ_909  and  OH_910
REMARK  523  A    between atoms: N_911  and  CA_912
REMARK  524  A    between atoms: CA_912  and  C_913
REMARK  525  A    between atoms: CA_912  and  CB_915
REMARK  526  A    between atoms: CB_915  and  CG1_916
REMARK  527  A    between atoms: CB_915  and  CG2_917
REMARK  528  A    between atoms: CG1_916  and  CD1_918
REMARK  529  A    between atoms: N_919  and  CA_920
REMARK  530  A    between atoms: CA_920  and  C_921
REMARK  531  A    between atoms: CA_920  and  CB_923
REMARK  532  A    between atoms: CB_923  and  OG1_924
REMARK  533  A    between atoms: CB_923  and  CG2_925
REMARK  534  A    between atoms: N_926  and  CA_927
REMARK  535  A    between atoms: CA_927  and  C_928
REMARK  536  A    between atoms: CA_927  and  CB_930
REMARK  537  A    between atoms: CB_930  and  CG_931
REMARK  538  A    between atoms: CG_931  and  CD_932
REMARK  539  A    between atoms: N_935  and  CA_936
REMARK  540  A    between atoms: CA_936  and  C_937
REMARK  541  A    between atoms: CA_936  and  CB_939
REMARK  542  A    between atoms: CB_939  and  CG_940
REMARK  543  A    between atoms: CG_940  and  CD2_941
REMARK  544  A    between atoms: CG_940  and  CD1_942
REMARK  545  A    between atoms: N_943  and  CA_944
REMARK  546  A    between atoms: CA_944  and  C_945
REMARK  547  A    between atoms: CA_944  and  CB_947
REMARK  548  A    between atoms: N_948  and  CA_949
REMARK  549  A    between atoms: CA_949  and  C_950
REMARK  550  A    between atoms: CA_949  and  CB_952
REMARK  551  A    between atoms: CB_952  and  CG_953
REMARK  552  A    between atoms: N_956  and  CA_957
REMARK  553  A    between atoms: CA_957  and  C_958
REMARK  554  A    between atoms: CA_957  and  CB_960
REMARK  555  A    between atoms: N_961  and  CA_962
REMARK  556  A    between atoms: CA_962  and  C_963
REMARK  557  A    between atoms: CA_962  and  CB_965
REMARK  558  A    between atoms: CB_965  and  CG_966
REMARK  559  A    between atoms: CG_966  and  CD2_967
REMARK  560  A    between atoms: CG_966  and  CD1_968
REMARK  561  A    between atoms: N_969  and  CA_970
REMARK  562  A    between atoms: CA_970  and  C_971
REMARK  563  A    between atoms: CA_970  and  CB_973
REMARK  564  A    between atoms: CB_973  and  OG_974
REMARK  565  A    between atoms: N_975  and  CA_976
REMARK  566  A    between atoms: CA_976  and  C_977
REMARK  567  A    between atoms: CA_976  and  CB_979
REMARK  568  A    between atoms: CB_979  and  CG_980
REMARK  569  A    between atoms: CZ_985  and  OH_986
REMARK  570  A    between atoms: N_987  and  CA_988
REMARK  571  A    between atoms: CA_988  and  C_989
REMARK  572  A    between atoms: CA_988  and  CB_991
REMARK  573  A    between atoms: CB_991  and  SG_992
REMARK  574  A    between atoms: N_993  and  CA_994
REMARK  575  A    between atoms: CA_994  and  C_995
REMARK  576  A    between atoms: CA_994  and  CB_997
REMARK  577  A    between atoms: CB_997  and  CG_998
REMARK  578  A    between atoms: N_1003  and  C_1004
REMARK  579  A    between atoms: C_1004  and  C_1005
REMARK  580  A    between atoms: C_1004  and  C_1007
REMARK  581  A    between atoms: C_1007  and  O_1008
REMARK  582  A    between atoms: N_1009  and  C_1010
REMARK  583  A    between atoms: C_1010  and  C_1011
REMARK  584  A    between atoms: C_1010  and  C_1013
REMARK  585  A    between atoms: C_1013  and  C_1014
REMARK  586  A    between atoms: C_1014  and  C_1015
REMARK  587  A    between atoms: C_1015  and  C_1016
REMARK  588  A    between atoms: C_1016  and  N_1017
REMARK  589  A    between atoms: N_1018  and  C_1019
REMARK  590  A    between atoms: C_1020  and  C_1021
REMARK  591  A    between atoms: C_1020  and  C_1024
REMARK  592  A    between atoms: C_1023  and  C_1026
REMARK  593  A    between atoms: C_1025  and  C_1026
REMARK  594  A    between atoms: C_1027  and  N_1029
REMARK  595  A    between atoms: C_1028  and  N_1030
REMARK  596  A    between atoms: N_1037  and  C_1038
REMARK  597  A    between atoms: C_1038  and  C_1039
REMARK  598  A    between atoms: C_1038  and  C_1041
REMARK  599  A    between atoms: C_1041  and  C_1042
REMARK  600  A    between atoms: C_1041  and  C_1043
REMARK  601  A    between atoms: N_1044  and  C_1045
REMARK  602  A    between atoms: C_1045  and  C_1046
REMARK  603  A    between atoms: C_1045  and  C_1048
REMARK  604  A    between atoms: C_1048  and  C_1049
REMARK  605  A    between atoms: C_1048  and  C_1050
REMARK  606  A    between atoms: C_1049  and  C_1051
REMARK  607  A    between atoms: N_1052  and  C_1053
REMARK  608  A    between atoms: C_1053  and  C_1054
REMARK  609  A    between atoms: C_1053  and  C_1056
REMARK  610  A    between atoms: C_1056  and  C_1057
REMARK  611  A    between atoms: N_1062  and  C_1063
REMARK  612  A    between atoms: C_1063  and  C_1064
REMARK  613  A    between atoms: C_1063  and  C_1066
REMARK  614  A    between atoms: C_1066  and  C_1067
REMARK  615  A    between atoms: C_1067  and  C_1068
REMARK  616  A    between atoms: C_1068  and  N_1069
REMARK  617  A    between atoms: N_1073  and  C_1074
REMARK  618  A    between atoms: C_1074  and  C_1077
REMARK  619  A    between atoms: C_1077  and  C_1078
REMARK  620  A    between atoms: N_1081  and  C_1084
REMARK  621  A    between atoms: C_1083  and  C_1085
REMARK  622  A    between atoms: C_1085  and  C_1086
REMARK  623  A    between atoms: C_1085  and  O_1087
REMARK  624  A    between atoms: C_1085  and  N_1097
REMARK  625  A    between atoms: C_1089  and  C_1094
REMARK  626  A    between atoms: C_1090  and  C_1091
REMARK  627  A    between atoms: C_1093  and  C_1094
REMARK  628  A    between atoms: C_1098  and  C_1099
REMARK  629  A    between atoms: C_1098  and  C_1101
REMARK  630  A    between atoms: C_1101  and  C_1102
REMARK  631  A    between atoms: C_1102  and  C_1103
REMARK  632  A    between atoms: C_1103  and  C_1104
REMARK  633  A    between atoms: C_1104  and  N_1105
REMARK  634  A    between atoms: C_1107  and  C_1108
REMARK  635  A    between atoms: N_1113  and  CA_1114
REMARK  636  A    between atoms: CA_1114  and  C_1115
REMARK  637  A    between atoms: CA_1114  and  CB_1117
REMARK  638  A    between atoms: CB_1117  and  CG_1118
REMARK  639  A    between atoms: CG_1118  and  CD_1119
REMARK  640  A    between atoms: N_1122  and  CA_1123
REMARK  641  A    between atoms: CA_1123  and  C_1124
REMARK  642  A    between atoms: CA_1123  and  CB_1126
REMARK  643  A    between atoms: CB_1126  and  CG_1127
REMARK  644  A    between atoms: N_1130  and  CA_1131
REMARK  645  A    between atoms: CA_1131  and  C_1132
REMARK  646  A    between atoms: CA_1131  and  CB_1134
REMARK  647  A    between atoms: CB_1134  and  CG_1135
REMARK  648  A    between atoms: CG_1135  and  CD2_1136
REMARK  649  A    between atoms: CG_1135  and  CD1_1137
REMARK  650  A    between atoms: N_1138  and  CA_1139
REMARK  651  A    between atoms: CA_1139  and  C_1140
REMARK  652  A    between atoms: CA_1139  and  CB_1142
REMARK  653  A    between atoms: CB_1142  and  CG_1143
REMARK  654  A    between atoms: CG_1143  and  CD1_1144
REMARK  655  A    between atoms: CG_1143  and  CD2_1145
REMARK  656  A    between atoms: N_1146  and  CA_1147
REMARK  657  A    between atoms: CA_1147  and  C_1148
REMARK  658  A    between atoms: CA_1147  and  CB_1150
REMARK  659  A    between atoms: CB_1150  and  CG_1151
REMARK  660  A    between atoms: CG_1151  and  CD2_1152
REMARK  661  A    between atoms: CG_1151  and  CD1_1153
REMARK  662  A    between atoms: N_1154  and  CA_1155
REMARK  663  A    between atoms: CA_1155  and  C_1156
REMARK  664  A    between atoms: N_1158  and  CA_1159
REMARK  665  A    between atoms: CA_1159  and  C_1160
REMARK  666  A    between atoms: CA_1159  and  CB_1162
REMARK  667  A    between atoms: CB_1162  and  OG_1163
REMARK  668  A    between atoms: N_1164  and  CA_1165
REMARK  669  A    between atoms: CA_1165  and  C_1166
REMARK  670  A    between atoms: CA_1165  and  CB_1168
REMARK  671  A    between atoms: N_1169  and  CA_1170
REMARK  672  A    between atoms: CA_1170  and  C_1171
REMARK  673  A    between atoms: N_1173  and  CA_1174
REMARK  674  A    between atoms: CA_1174  and  C_1175
REMARK  675  A    between atoms: CA_1174  and  CB_1177
REMARK  676  A    between atoms: CB_1177  and  CG_1178
REMARK  677  A    between atoms: CG_1178  and  CD_1179
REMARK  678  A    between atoms: N_1182  and  CA_1183
REMARK  679  A    between atoms: CA_1183  and  C_1184
REMARK  680  A    between atoms: CA_1183  and  CB_1186
REMARK  681  A    between atoms: CB_1186  and  CG_1187
REMARK  682  A    between atoms: CG_1187  and  CD2_1188
REMARK  683  A    between atoms: CG_1187  and  CD1_1189
REMARK  684  A    between atoms: N_1190  and  CA_1191
REMARK  685  A    between atoms: CA_1191  and  C_1192
REMARK  686  A    between atoms: CA_1191  and  CB_1194
REMARK  687  A    between atoms: CB_1194  and  CG_1195
REMARK  688  A    between atoms: CG_1195  and  CD_1196
REMARK  689  A    between atoms: CD_1196  and  CE_1197
REMARK  690  A    between atoms: CE_1197  and  NZ_1198
REMARK  691  A    between atoms: N_1199  and  CA_1200
REMARK  692  A    between atoms: CA_1200  and  C_1201
REMARK  693  A    between atoms: CA_1200  and  CB_1203
REMARK  694  A    between atoms: CB_1203  and  CG1_1204
REMARK  695  A    between atoms: CB_1203  and  CG2_1205
REMARK  696  A    between atoms: CG1_1204  and  CD1_1206
REMARK  697  A    between atoms: N_1207  and  CA_1208
REMARK  698  A    between atoms: CA_1208  and  C_1209
REMARK  699  A    between atoms: CA_1208  and  CB_1211
REMARK  700  A    between atoms: N_1212  and  CA_1213
REMARK  701  A    between atoms: CA_1213  and  C_1214
REMARK  702  A    between atoms: CA_1213  and  CB_1216
REMARK  703  A    between atoms: CB_1216  and  CG_1217
REMARK  704  A    between atoms: N_1220  and  CA_1221
REMARK  705  A    between atoms: CA_1221  and  C_1222
REMARK  706  A    between atoms: CA_1221  and  CB_1224
REMARK  707  A    between atoms: CB_1224  and  CG_1225
REMARK  708  A    between atoms: N_1231  and  CA_1232
REMARK  709  A    between atoms: CA_1232  and  C_1233
REMARK  710  A    between atoms: N_1235  and  CA_1236
REMARK  711  A    between atoms: CA_1236  and  C_1237
REMARK  712  A    between atoms: CA_1236  and  CB_1239
REMARK  713  A    between atoms: CB_1239  and  CG_1240
REMARK  714  A    between atoms: N_1249  and  CA_1250
REMARK  715  A    between atoms: CA_1250  and  C_1251
REMARK  716  A    between atoms: CA_1250  and  CB_1253
REMARK  717  A    between atoms: CB_1253  and  OG_1254
REMARK  718  A    between atoms: N_1255  and  CA_1256
REMARK  719  A    between atoms: CA_1256  and  C_1257
REMARK  720  A    between atoms: CA_1256  and  CB_1259
REMARK  721  A    between atoms: CB_1259  and  CG2_1260
REMARK  722  A    between atoms: CB_1259  and  CG1_1261
REMARK  723  A    between atoms: N_1262  and  CA_1263
REMARK  724  A    between atoms: CA_1263  and  C_1264
REMARK  725  A    between atoms: CA_1263  and  CB_1266
REMARK  726  A    between atoms: CB_1266  and  CG_1267
REMARK  727  A    between atoms: N_1272  and  CA_1273
REMARK  728  A    between atoms: CA_1273  and  C_1274
REMARK  729  A    between atoms: CA_1273  and  CB_1276
REMARK  730  A    between atoms: CA_1278  and  C_1279
REMARK  731  A    between atoms: N_1284  and  CA_1285
REMARK  732  A    between atoms: CA_1285  and  C_1286
REMARK  733  A    between atoms: CA_1285  and  CB_1288
REMARK  734  A    between atoms: CB_1288  and  OG_1289
REMARK  735  A    between atoms: N_1290  and  CA_1291
REMARK  736  A    between atoms: CA_1291  and  C_1292
REMARK  737  A    between atoms: CA_1291  and  CB_1294
REMARK  738  A    between atoms: CB_1294  and  OG_1295
REMARK  739  A    between atoms: N_1296  and  C_1297
REMARK  740  A    between atoms: C_1297  and  C_1298
REMARK  741  A    between atoms: C_1297  and  C_1300
REMARK  742  A    between atoms: C_1300  and  C_1301
REMARK  743  A    between atoms: C_1301  and  C_1302
REMARK  744  A    between atoms: N_1303  and  CA_1304
REMARK  745  A    between atoms: CA_1304  and  C_1305
REMARK  746  A    between atoms: CA_1304  and  CB_1307
REMARK  747  A    between atoms: CB_1307  and  CG_1308
REMARK  748  A    between atoms: CG_1308  and  CD_1309
REMARK  749  A    between atoms: CD_1309  and  NE_1310
REMARK  750  A    between atoms: N_1314  and  CA_1315
REMARK  751  A    between atoms: CA_1315  and  C_1316
REMARK  752  A    between atoms: CA_1315  and  CB_1318
REMARK  753  A    between atoms: CB_1318  and  OG1_1319
REMARK  754  A    between atoms: CB_1318  and  CG2_1320
REMARK  755  A    between atoms: N_1321  and  C_1322
REMARK  756  A    between atoms: C_1322  and  C_1323
REMARK  757  A    between atoms: C_1322  and  C_1325
REMARK  758  A    between atoms: C_1325  and  C_1326
REMARK  759  A    between atoms: C_1326  and  C_1327
REMARK  760  A    between atoms: C_1326  and  C_1328
REMARK  761  A    between atoms: N_1329  and  C_1330
REMARK  762  A    between atoms: C_1330  and  C_1331
REMARK  763  A    between atoms: C_1330  and  C_1333
REMARK  764  A    between atoms: N_1334  and  C_1335
REMARK  765  A    between atoms: C_1335  and  C_1336
REMARK  766  A    between atoms: N_1338  and  C_1339
REMARK  767  A    between atoms: C_1339  and  C_1340
REMARK  768  A    between atoms: C_1339  and  C_1342
REMARK  769  A    between atoms: C_1342  and  O_1343
REMARK  770  A    between atoms: C_1342  and  C_1344
REMARK  771  A    between atoms: N_1345  and  C_1346
REMARK  772  A    between atoms: C_1346  and  C_1347
REMARK  773  A    between atoms: C_1346  and  C_1349
REMARK  774  A    between atoms: C_1349  and  C_1350
REMARK  775  A    between atoms: C_1350  and  C_1351
REMARK  776  A    between atoms: C_1350  and  C_1352
REMARK  777  A    between atoms: N_1353  and  C_1354
REMARK  778  A    between atoms: C_1354  and  C_1355
REMARK  779  A    between atoms: C_1354  and  C_1357
REMARK  780  A    between atoms: C_1357  and  C_1358
REMARK  781  A    between atoms: N_1361  and  C_1362
REMARK  782  A    between atoms: C_1362  and  C_1363
REMARK  783  A    between atoms: C_1362  and  C_1365
REMARK  784  A    between atoms: C_1365  and  C_1366
REMARK  785  A    between atoms: C_1371  and  O_1372
REMARK  786  A    between atoms: N_1373  and  C_1374
REMARK  787  A    between atoms: C_1374  and  C_1375
REMARK  788  A    between atoms: C_1374  and  C_1377
REMARK  789  A    between atoms: C_1377  and  C_1378
REMARK  790  A    between atoms: C_1378  and  C_1379
REMARK  791  A    between atoms: C_1378  and  C_1380
REMARK  792  A    between atoms: C_1382  and  C_1383
REMARK  793  A    between atoms: C_1389  and  C_1390
REMARK  794  A    between atoms: N_1395  and  C_1396
REMARK  795  A    between atoms: C_1396  and  C_1399
REMARK  796  A    between atoms: C_1399  and  C_1400
REMARK  797  A    between atoms: C_1400  and  C_1401
REMARK  798  A    between atoms: N_1405  and  C_1406
REMARK  799  A    between atoms: C_1407  and  C_1412
REMARK  800  A    between atoms: C_1408  and  O_1410
REMARK  801  A    between atoms: C_1409  and  O_1411
REMARK  802  A    between atoms: O_1410  and  O_1411
REMARK  803  A    between atoms: C_1412  and  C_1414
REMARK  804  A    between atoms: C_1413  and  C_1415
REMARK  805  A    between atoms: S_1416  and  C_1418
REMARK  806  A    between atoms: S_1417  and  C_1419
REMARK  807  A    between atoms: C_1418  and  C_1419
REMARK  808  A    between atoms: N_1420  and  CA_1421
REMARK  809  A    between atoms: CA_1421  and  C_1422
REMARK  810  A    between atoms: CA_1421  and  CB_1424
REMARK  811  A    between atoms: CB_1424  and  CG1_1425
REMARK  812  A    between atoms: CB_1424  and  CG2_1426
REMARK  813  A    between atoms: CG1_1425  and  CD1_1427
REMARK  814  A    between atoms: N_1428  and  CA_1429
REMARK  815  A    between atoms: CA_1429  and  C_1430
REMARK  816  A    between atoms: CA_1429  and  CB_1432
REMARK  817  A    between atoms: CB_1432  and  CG_1433
REMARK  818  A    between atoms: CG_1433  and  CD_1434
REMARK  819  A    between atoms: N_1437  and  CA_1438
REMARK  820  A    between atoms: CA_1438  and  C_1439
REMARK  821  A    between atoms: N_1441  and  CA_1442
REMARK  822  A    between atoms: CA_1442  and  C_1443
REMARK  823  A    between atoms: CA_1442  and  CB_1445
REMARK  824  A    between atoms: CB_1445  and  CG_1446
REMARK  825  A    between atoms: CG_1446  and  CD_1447
REMARK  826  A    between atoms: CD_1447  and  NE_1448
REMARK  827  A    between atoms: N_1452  and  C_1453
REMARK  828  A    between atoms: C_1453  and  C_1454
REMARK  829  A    between atoms: C_1453  and  C_1456
REMARK  830  A    between atoms: C_1456  and  C_1457
REMARK  831  A    between atoms: C_1457  and  S_1458
REMARK  832  A    between atoms: N_1459  and  CA_1460
REMARK  833  A    between atoms: CA_1460  and  C_1461
REMARK  834  A    between atoms: CA_1460  and  CB_1463
REMARK  835  A    between atoms: CB_1463  and  CG_1464
REMARK  836  A    between atoms: N_1469  and  CA_1470
REMARK  837  A    between atoms: CA_1470  and  C_1471
REMARK  838  A    between atoms: CA_1470  and  CB_1473
REMARK  839  A    between atoms: CB_1473  and  CG_1474
REMARK  840  A    between atoms: N_1477  and  CA_1478
REMARK  841  A    between atoms: CA_1478  and  C_1479
REMARK  842  A    between atoms: CA_1478  and  CB_1481
REMARK  843  A    between atoms: CB_1481  and  CG_1482
REMARK  844  A    between atoms: CG_1482  and  CD_1483
REMARK  845  A    between atoms: N_1486  and  CA_1487
REMARK  846  A    between atoms: CA_1487  and  C_1488
REMARK  847  A    between atoms: CA_1487  and  CB_1490
REMARK  848  A    between atoms: CB_1490  and  CG_1491
REMARK  849  A    between atoms: CG_1491  and  CD_1492
REMARK  850  A    between atoms: CD_1492  and  CE_1493
REMARK  851  A    between atoms: CE_1493  and  NZ_1494
REMARK  852  A    between atoms: N_1495  and  CA_1496
REMARK  853  A    between atoms: CA_1496  and  C_1497
REMARK  854  A    between atoms: CA_1496  and  CB_1499
REMARK  855  A    between atoms: CB_1499  and  CG2_1500
REMARK  856  A    between atoms: CB_1499  and  CG1_1501
REMARK  857  A    between atoms: N_1502  and  CA_1503
REMARK  858  A    between atoms: CA_1503  and  C_1504
REMARK  859  A    between atoms: CA_1503  and  CB_1506
REMARK  860  A    between atoms: CB_1506  and  CG_1507
REMARK  861  A    between atoms: N_1510  and  CA_1511
REMARK  862  A    between atoms: CA_1511  and  C_1512
REMARK  863  A    between atoms: CA_1511  and  CB_1514
REMARK  864  A    between atoms: CB_1514  and  CG_1515
REMARK  865  A    between atoms: CG_1515  and  CD2_1516
REMARK  866  A    between atoms: CG_1515  and  CD1_1517
REMARK  867  A    between atoms: N_1518  and  CA_1519
REMARK  868  A    between atoms: CA_1519  and  C_1520
REMARK  869  A    between atoms: CA_1519  and  CB_1522
REMARK  870  A    between atoms: CB_1522  and  CG_1523
REMARK  871  A    between atoms: N_1532  and  CA_1533
REMARK  872  A    between atoms: CA_1533  and  C_1534
REMARK  873  A    between atoms: CA_1533  and  CB_1536
REMARK  874  A    between atoms: CB_1536  and  OG_1537
REMARK  875  A    between atoms: N_1538  and  CA_1539
REMARK  876  A    between atoms: CA_1539  and  C_1540
REMARK  877  A    between atoms: CA_1539  and  CB_1542
REMARK  878  A    between atoms: CB_1542  and  CG_1543
REMARK  879  A    between atoms: CG_1543  and  CD2_1544
REMARK  880  A    between atoms: CG_1543  and  CD1_1545
REMARK  881  A    between atoms: N_1546  and  CA_1547
REMARK  882  A    between atoms: CA_1547  and  C_1548
REMARK  883  A    between atoms: N_1550  and  CA_1551
REMARK  884  A    between atoms: CA_1551  and  C_1552
REMARK  885  A    between atoms: CA_1551  and  CB_1554
REMARK  886  A    between atoms: CB_1554  and  CG2_1555
REMARK  887  A    between atoms: CB_1554  and  CG1_1556
REMARK  888  A    between atoms: N_1557  and  CA_1558
REMARK  889  A    between atoms: CA_1558  and  C_1559
REMARK  890  A    between atoms: CA_1558  and  CB_1561
REMARK  891  A    between atoms: CB_1561  and  CG_1562
REMARK  892  A    between atoms: CG_1562  and  CD1_1563
REMARK  893  A    between atoms: CG_1562  and  CD2_1564
REMARK  894  A    between atoms: N_1565  and  CA_1566
REMARK  895  A    between atoms: CA_1566  and  C_1567
REMARK  896  A    between atoms: CA_1566  and  CB_1569
REMARK  897  A    between atoms: CB_1569  and  SG_1570
REMARK  898  A    between atoms: N_1571  and  CA_1572
REMARK  899  A    between atoms: CA_1572  and  C_1573
REMARK  900  A    between atoms: CA_1572  and  CB_1575
REMARK  901  A    between atoms: CB_1575  and  CG_1576
REMARK  902  A    between atoms: CZ_1581  and  OH_1582
REMARK  903  A    between atoms: N_1583  and  CA_1584
REMARK  904  A    between atoms: CA_1584  and  C_1585
REMARK  905  A    between atoms: CA_1584  and  CB_1587
REMARK  906  A    between atoms: CB_1587  and  CG_1588
REMARK  907  A    between atoms: CG_1588  and  CD_1589
REMARK  908  A    between atoms: N_1592  and  CA_1593
REMARK  909  A    between atoms: CA_1593  and  C_1594
REMARK  910  A    between atoms: CA_1593  and  CB_1596
REMARK  911  A    between atoms: CB_1596  and  CG_1597
REMARK  912  A    between atoms: N_1603  and  CA_1604
REMARK  913  A    between atoms: CA_1604  and  C_1605
REMARK  914  A    between atoms: CA_1604  and  CB_1607
REMARK  915  A    between atoms: CB_1607  and  CG_1608
REMARK  916  A    between atoms: CG_1608  and  CD1_1609
REMARK  917  A    between atoms: CG_1608  and  CD2_1610
REMARK  918  A    between atoms: N_1611  and  CA_1612
REMARK  919  A    between atoms: CA_1612  and  C_1613
REMARK  920  A    between atoms: CA_1612  and  CB_1615
REMARK  921  A    between atoms: CB_1615  and  CG2_1616
REMARK  922  A    between atoms: CB_1615  and  CG1_1617
REMARK  923  A    between atoms: N_1618  and  CA_1619
REMARK  924  A    between atoms: CA_1619  and  C_1620
REMARK  925  A    between atoms: N_1622  and  C_1623
REMARK  926  A    between atoms: C_1623  and  C_1624
REMARK  927  A    between atoms: C_1623  and  C_1626
REMARK  928  A    between atoms: C_1626  and  C_1627
REMARK  929  A    between atoms: C_1627  and  C_1628
REMARK  930  A    between atoms: CA_1630  and  C_1631
REMARK  931  A    between atoms: CA_1637  and  C_1638
REMARK  932  A    between atoms: N_1643  and  CA_1644
REMARK  933  A    between atoms: CA_1644  and  C_1645
REMARK  934  A    between atoms: CA_1644  and  CB_1647
REMARK  935  A    between atoms: CB_1647  and  CG_1648
REMARK  936  A    between atoms: N_1654  and  CA_1655
REMARK  937  A    between atoms: CA_1655  and  C_1656
REMARK  938  A    between atoms: CA_1655  and  CB_1658
REMARK  939  A    between atoms: CB_1658  and  CG_1659
REMARK  940  A    between atoms: CG_1659  and  CD_1660
REMARK  941  A    between atoms: N_1663  and  CA_1664
REMARK  942  A    between atoms: CA_1664  and  C_1665
REMARK  943  A    between atoms: CA_1664  and  CB_1667
REMARK  944  A    between atoms: N_1668  and  CA_1669
REMARK  945  A    between atoms: CA_1669  and  C_1670
REMARK  946  A    between atoms: CA_1669  and  CB_1672
REMARK  947  A    between atoms: CB_1672  and  CG_1673
REMARK  948  A    between atoms: N_1676  and  CA_1677
REMARK  949  A    between atoms: CA_1677  and  C_1678
REMARK  950  A    between atoms: CA_1677  and  CB_1680
REMARK  951  A    between atoms: CB_1680  and  OG1_1681
REMARK  952  A    between atoms: CB_1680  and  CG2_1682
REMARK  953  A    between atoms: N_1683  and  CA_1684
REMARK  954  A    between atoms: CA_1684  and  C_1685
REMARK  955  A    between atoms: CA_1684  and  CB_1687
REMARK  956  A    between atoms: CB_1687  and  CG_1688
REMARK  957  A    between atoms: CZ_1693  and  OH_1694
REMARK  958  A    between atoms: N_1695  and  CA_1696
REMARK  959  A    between atoms: CA_1696  and  C_1697
REMARK  960  A    between atoms: CA_1696  and  CB_1699
REMARK  961  A    between atoms: CB_1699  and  CG_1700
REMARK  962  A    between atoms: CG_1700  and  CD_1701
REMARK  963  A    between atoms: N_1704  and  CA_1705
REMARK  964  A    between atoms: CA_1705  and  C_1706
REMARK  965  A    between atoms: CA_1705  and  CB_1708
REMARK  966  A    between atoms: CB_1708  and  CG_1709
REMARK  967  A    between atoms: CG_1709  and  CD_1710
REMARK  968  A    between atoms: N_1713  and  CA_1714
REMARK  969  A    between atoms: CA_1714  and  C_1715
REMARK  970  A    between atoms: CA_1714  and  CB_1717
REMARK  971  A    between atoms: CB_1717  and  OG1_1718
REMARK  972  A    between atoms: CB_1717  and  CG2_1719
REMARK  973  A    between atoms: N_1720  and  CA_1721
REMARK  974  A    between atoms: CA_1721  and  C_1722
REMARK  975  A    between atoms: CA_1721  and  CB_1724
REMARK  976  A    between atoms: CB_1724  and  CG_1725
REMARK  977  A    between atoms: CZ_1730  and  OH_1731
REMARK  978  A    between atoms: N_1732  and  CA_1733
REMARK  979  A    between atoms: CA_1733  and  C_1734
REMARK  980  A    between atoms: CA_1733  and  CB_1736
REMARK  981  A    between atoms: CB_1736  and  SG_1737
REMARK  982  A    between atoms: N_1738  and  C_1739
REMARK  983  A    between atoms: C_1739  and  C_1740
REMARK  984  A    between atoms: C_1739  and  C_1742
REMARK  985  A    between atoms: C_1742  and  C_1743
REMARK  986  A    between atoms: C_1743  and  C_1744
REMARK  987  A    between atoms: C_1744  and  N_1745
REMARK  988  A    between atoms: N_1746  and  CA_1747
REMARK  989  A    between atoms: CA_1747  and  C_1748
REMARK  990  A    between atoms: CA_1747  and  CB_1750
REMARK  991  A    between atoms: CB_1750  and  CG1_1751
REMARK  992  A    between atoms: CB_1750  and  CG2_1752
REMARK  993  A    between atoms: CG1_1751  and  CD1_1753
REMARK  994  A    between atoms: N_1754  and  C_1755
REMARK  995  A    between atoms: C_1755  and  C_1756
REMARK  996  A    between atoms: C_1755  and  C_1758
REMARK  997  A    between atoms: C_1758  and  O_1759
REMARK  998  A    between atoms: N_1760  and  C_1761
REMARK  999  A    between atoms: C_1761  and  C_1762
REMARK  1000  A    between atoms: C_1761  and  C_1764
REMARK  1001  A    between atoms: C_1764  and  C_1765
REMARK  1002  A    between atoms: C_1765  and  C_1766
REMARK  1003  A    between atoms: C_1766  and  N_1767
REMARK  1004  A    between atoms: N_1771  and  C_1772
REMARK  1005  A    between atoms: C_1772  and  C_1773
REMARK  1006  A    between atoms: C_1772  and  C_1775
REMARK  1007  A    between atoms: C_1775  and  C_1776
REMARK  1008  A    between atoms: C_1775  and  C_1777
REMARK  1009  A    between atoms: N_1778  and  C_1779
REMARK  1010  A    between atoms: C_1779  and  C_1780
REMARK  1011  A    between atoms: C_1779  and  C_1782
REMARK  1012  A    between atoms: C_1782  and  C_1783
REMARK  1013  A    between atoms: C_1783  and  C_1784
REMARK  1014  A    between atoms: N_1787  and  C_1788
REMARK  1015  A    between atoms: C_1788  and  C_1789
REMARK  1016  A    between atoms: C_1788  and  C_1791
REMARK  1017  A    between atoms: C_1791  and  C_1792
REMARK  1018  A    between atoms: N_1798  and  C_1799
REMARK  1019  A    between atoms: C_1799  and  C_1800
REMARK  1020  A    between atoms: C_1799  and  C_1802
REMARK  1021  A    between atoms: C_1802  and  O_1803
REMARK  1022  A    between atoms: C_1802  and  C_1804
REMARK  1023  A    between atoms: N_1805  and  C_1806
REMARK  1024  A    between atoms: C_1806  and  C_1807
REMARK  1025  A    between atoms: C_1806  and  C_1809
REMARK  1026  A    between atoms: C_1809  and  C_1810
REMARK  1027  A    between atoms: C_1817  and  C_1818
REMARK  1028  A    between atoms: N_1823  and  C_1824
REMARK  1029  A    between atoms: C_1824  and  C_1825
REMARK  1030  A    between atoms: C_1824  and  C_1827
REMARK  1031  A    between atoms: C_1827  and  C_1828
REMARK  1032  A    between atoms: N_1831  and  C_1832
REMARK  1033  A    between atoms: C_1832  and  C_1833
REMARK  1034  A    between atoms: C_1832  and  C_1835
REMARK  1035  A    between atoms: C_1835  and  C_1836
REMARK  1036  A    between atoms: N_1842  and  C_1843
REMARK  1037  A    between atoms: C_1843  and  C_1844
REMARK  1038  A    between atoms: C_1843  and  C_1846
REMARK  1039  A    between atoms: C_1846  and  C_1847
REMARK  1040  A    between atoms: C_1846  and  C_1848
REMARK  1041  A    between atoms: N_1849  and  C_1850
REMARK  1042  A    between atoms: C_1850  and  C_1851
REMARK  1043  A    between atoms: C_1850  and  C_1853
REMARK  1044  A    between atoms: C_1853  and  O_1854
REMARK  1045  A    between atoms: C_1853  and  C_1855
REMARK  1046  A    between atoms: N_1856  and  C_1857
REMARK  1047  A    between atoms: C_1858  and  C_1859
REMARK  1048  A    between atoms: C_1858  and  C_1861
REMARK  1049  A    between atoms: C_1862  and  C_1863
REMARK  1050  A    between atoms: C_1862  and  C_1864
REMARK  1051  A    between atoms: C_1863  and  C_1865
REMARK  1052  A    between atoms: N_1871  and  C_1872
REMARK  1053  A    between atoms: C_1872  and  C_1873
REMARK  1054  A    between atoms: N_1875  and  CA_1876
REMARK  1055  A    between atoms: CA_1876  and  C_1877
REMARK  1056  A    between atoms: CA_1876  and  CB_1879
REMARK  1057  A    between atoms: N_1880  and  CA_1881
REMARK  1058  A    between atoms: CA_1881  and  C_1882
REMARK  1059  A    between atoms: CA_1881  and  CB_1884
REMARK  1060  A    between atoms: CB_1884  and  CG_1885
REMARK  1061  A    between atoms: CG_1885  and  CD_1886
REMARK  1062  A    between atoms: CD_1886  and  NE_1887
REMARK  1063  A    between atoms: N_1891  and  CA_1892
REMARK  1064  A    between atoms: CA_1892  and  C_1893
REMARK  1065  A    between atoms: CA_1892  and  CB_1895
REMARK  1066  A    between atoms: CB_1895  and  CG_1896
REMARK  1067  A    between atoms: N_1899  and  CA_1900
REMARK  1068  A    between atoms: CA_1900  and  C_1901
REMARK  1069  A    between atoms: CA_1900  and  CB_1903
REMARK  1070  A    between atoms: CB_1903  and  CG_1904
REMARK  1071  A    between atoms: CG_1904  and  CD1_1905
REMARK  1072  A    between atoms: CG_1904  and  CD2_1906
REMARK  1073  A    between atoms: N_1907  and  CA_1908
REMARK  1074  A    between atoms: CA_1908  and  C_1909
REMARK  1075  A    between atoms: CA_1908  and  CB_1911
REMARK  1076  A    between atoms: CB_1911  and  CG1_1912
REMARK  1077  A    between atoms: CB_1911  and  CG2_1913
REMARK  1078  A    between atoms: CG1_1912  and  CD1_1914
REMARK  1079  A    between atoms: N_1915  and  CA_1916
REMARK  1080  A    between atoms: CA_1916  and  C_1917
REMARK  1081  A    between atoms: CA_1916  and  CB_1919
REMARK  1082  A    between atoms: CB_1919  and  OG_1920
REMARK  1083  A    between atoms: N_1921  and  CA_1922
REMARK  1084  A    between atoms: CA_1922  and  C_1923
REMARK  1085  A    between atoms: CA_1922  and  CB_1925
REMARK  1086  A    between atoms: CB_1925  and  CG_1926
REMARK  1087  A    between atoms: CG_1926  and  CD_1927
REMARK  1088  A    between atoms: CD_1927  and  NE_1928
REMARK  1089  A    between atoms: N_1932  and  CA_1933
REMARK  1090  A    between atoms: CA_1933  and  C_1934
REMARK  1091  A    between atoms: CA_1933  and  CB_1936
REMARK  1092  A    between atoms: CB_1936  and  CG_1937
REMARK  1093  A    between atoms: CG_1937  and  CD2_1938
REMARK  1094  A    between atoms: CG_1937  and  CD1_1939
REMARK  1095  A    between atoms: N_1940  and  CA_1941
REMARK  1096  A    between atoms: CA_1941  and  C_1942
REMARK  1097  A    between atoms: CA_1941  and  CB_1944
REMARK  1098  A    between atoms: CB_1944  and  CG_1945
REMARK  1099  A    between atoms: CG_1945  and  CD2_1946
REMARK  1100  A    between atoms: CG_1945  and  CD1_1947
REMARK  1101  A    between atoms: N_1948  and  CA_1949
REMARK  1102  A    between atoms: CA_1949  and  C_1950
REMARK  1103  A    between atoms: CA_1949  and  CB_1952
REMARK  1104  A    between atoms: CB_1952  and  CG_1953
REMARK  1105  A    between atoms: CG_1953  and  CD_1954
REMARK  1106  A    between atoms: CD_1954  and  CE_1955
REMARK  1107  A    between atoms: CE_1955  and  NZ_1956
REMARK  1108  A    between atoms: N_1957  and  CA_1958
REMARK  1109  A    between atoms: CA_1958  and  C_1959
REMARK  1110  A    between atoms: CA_1958  and  CB_1961
REMARK  1111  A    between atoms: CB_1961  and  CG_1962
REMARK  1112  A    between atoms: N_1967  and  CA_1968
REMARK  1113  A    between atoms: CA_1968  and  C_1969
REMARK  1114  A    between atoms: CA_1968  and  CB_1971
REMARK  1115  A    between atoms: CB_1971  and  CG_1972
REMARK  1116  A    between atoms: CA_1976  and  C_1977
REMARK  1117  A    between atoms: N_1982  and  C_1983
REMARK  1118  A    between atoms: C_1983  and  C_1984
REMARK  1119  A    between atoms: C_1983  and  C_1986
REMARK  1120  A    between atoms: C_1986  and  O_1987
REMARK  1121  A    between atoms: N_1988  and  C_1989
REMARK  1122  A    between atoms: C_1989  and  C_1990
REMARK  1123  A    between atoms: C_1989  and  C_1992
REMARK  1124  A    between atoms: C_1992  and  C_1993
REMARK  1125  A    between atoms: C_1993  and  C_1994
REMARK  1126  A    between atoms: N_1997  and  C_1998
REMARK  1127  A    between atoms: C_1998  and  C_1999
REMARK  1128  A    between atoms: C_1998  and  C_2001
REMARK  1129  A    between atoms: C_2001  and  C_2002
REMARK  1130  A    between atoms: C_2002  and  C_2003
REMARK  1131  A    between atoms: C_2003  and  N_2004
REMARK  1132  A    between atoms: C_2009  and  C_2010
REMARK  1133  A    between atoms: N_2015  and  C_2017
REMARK  1134  A    between atoms: C_2016  and  C_2018
REMARK  1135  A    between atoms: C_2016  and  C_2021
REMARK  1136  A    between atoms: C_2021  and  C_2022
REMARK  1137  A    between atoms: C_2022  and  C_2023
REMARK  1138  A    between atoms: C_2023  and  S_2024
REMARK  1139  A    between atoms: C_2023  and  S_2025
REMARK  1140  A    between atoms: S_2024  and  C_2026
REMARK  1141  A    between atoms: S_2025  and  C_2027
REMARK  1142  A    between atoms: N_2028  and  CA_2029
REMARK  1143  A    between atoms: CA_2029  and  C_2030
REMARK  1144  A    between atoms: CA_2029  and  CB_2032
REMARK  1145  A    between atoms: CB_2032  and  CG_2033
REMARK  1146  A    between atoms: CG_2033  and  CD1_2034
REMARK  1147  A    between atoms: CG_2033  and  CD2_2035
REMARK  1148  A    between atoms: N_2036  and  CA_2037
REMARK  1149  A    between atoms: CA_2037  and  C_2038
REMARK  1150  A    between atoms: CA_2037  and  CB_2040
REMARK  1151  A    between atoms: N_2041  and  CA_2042
REMARK  1152  A    between atoms: CA_2042  and  C_2043
REMARK  1153  A    between atoms: CA_2042  and  CB_2045
REMARK  1154  A    between atoms: CB_2045  and  CG_2046
REMARK  1155  A    between atoms: CG_2046  and  CD_2047
REMARK  1156  A    between atoms: N_2050  and  CA_2051
REMARK  1157  A    between atoms: CA_2051  and  C_2052
REMARK  1158  A    between atoms: CA_2051  and  CB_2054
REMARK  1159  A    between atoms: CB_2054  and  CG2_2055
REMARK  1160  A    between atoms: CB_2054  and  CG1_2056
REMARK  1161  A    between atoms: N_2057  and  CA_2058
REMARK  1162  A    between atoms: CA_2058  and  C_2059
REMARK  1163  A    between atoms: CA_2058  and  CB_2061
REMARK  1164  A    between atoms: CB_2061  and  CG_2062
REMARK  1165  A    between atoms: CG_2062  and  CD1_2063
REMARK  1166  A    between atoms: CG_2062  and  CD2_2064
REMARK  1167  A    between atoms: N_2065  and  CA_2066
REMARK  1168  A    between atoms: CA_2066  and  C_2067
REMARK  1169  A    between atoms: CA_2066  and  CB_2069
REMARK  1170  A    between atoms: CB_2069  and  CG_2070
REMARK  1171  A    between atoms: CG_2070  and  CD_2071
REMARK  1172  A    between atoms: N_2074  and  CA_2075
REMARK  1173  A    between atoms: CA_2075  and  C_2076
REMARK  1174  A    between atoms: CA_2075  and  CB_2078
REMARK  1175  A    between atoms: CB_2078  and  CG_2079
REMARK  1176  A    between atoms: CA_2085  and  C_2086
REMARK  1177  A    between atoms: N_2091  and  CA_2092
REMARK  1178  A    between atoms: CA_2092  and  C_2093
REMARK  1179  A    between atoms: CA_2092  and  CB_2095
REMARK  1180  A    between atoms: CB_2095  and  CG_2096
REMARK  1181  A    between atoms: N_2105  and  CA_2106
REMARK  1182  A    between atoms: CA_2106  and  C_2107
REMARK  1183  A    between atoms: CA_2106  and  CB_2109
REMARK  1184  A    between atoms: CB_2109  and  CG1_2110
REMARK  1185  A    between atoms: CB_2109  and  CG2_2111
REMARK  1186  A    between atoms: CG1_2110  and  CD1_2112
REMARK  1187  A    between atoms: N_2113  and  CA_2114
REMARK  1188  A    between atoms: CA_2114  and  C_2115
REMARK  1189  A    between atoms: CA_2114  and  CB_2117
REMARK  1190  A    between atoms: CB_2117  and  OG1_2118
REMARK  1191  A    between atoms: CB_2117  and  CG2_2119
REMARK  1192  A    between atoms: N_2120  and  CA_2121
REMARK  1193  A    between atoms: CA_2121  and  C_2122
REMARK  1194  A    between atoms: CA_2121  and  CB_2124
REMARK  1195  A    between atoms: N_2125  and  CA_2126
REMARK  1196  A    between atoms: CA_2126  and  C_2127
REMARK  1197  A    between atoms: CA_2126  and  CB_2129
REMARK  1198  A    between atoms: CB_2129  and  CG_2130
REMARK  1199  A    between atoms: N_2133  and  CA_2134
REMARK  1200  A    between atoms: CA_2134  and  C_2135
REMARK  1201  A    between atoms: CA_2134  and  CB_2137
REMARK  1202  A    between atoms: CB_2137  and  OG_2138
REMARK  1203  A    between atoms: N_2139  and  CA_2140
REMARK  1204  A    between atoms: CA_2140  and  C_2141
REMARK  1205  A    between atoms: CA_2140  and  CB_2143
REMARK  1206  A    between atoms: CB_2143  and  OG_2144
REMARK  1207  A    between atoms: N_2145  and  C_2146
REMARK  1208  A    between atoms: C_2146  and  C_2147
REMARK  1209  A    between atoms: C_2146  and  C_2149
REMARK  1210  A    between atoms: C_2149  and  C_2150
REMARK  1211  A    between atoms: N_2151  and  CA_2152
REMARK  1212  A    between atoms: CA_2152  and  C_2153
REMARK  1213  A    between atoms: CA_2152  and  CB_2155
REMARK  1214  A    between atoms: CB_2155  and  OG_2156
REMARK  1215  A    between atoms: N_2157  and  CA_2158
REMARK  1216  A    between atoms: CA_2158  and  C_2159
REMARK  1217  A    between atoms: CA_2158  and  CB_2161
REMARK  1218  A    between atoms: CB_2161  and  CG_2162
REMARK  1219  A    between atoms: CG_2162  and  CD_2163
REMARK  1220  A    between atoms: CA_2167  and  C_2168
REMARK  1221  A    between atoms: CA_2174  and  C_2175
REMARK  1222  A    between atoms: N_2180  and  CA_2181
REMARK  1223  A    between atoms: CA_2181  and  C_2182
REMARK  1224  A    between atoms: CA_2181  and  CB_2184
REMARK  1225  A    between atoms: CB_2184  and  OG_2185
REMARK  1226  A    between atoms: N_2186  and  CA_2187
REMARK  1227  A    between atoms: CA_2187  and  C_2188
REMARK  1228  A    between atoms: CA_2187  and  CB_2190
REMARK  1229  A    between atoms: CB_2190  and  CG_2191
REMARK  1230  A    between atoms: N_2200  and  CA_2201
REMARK  1231  A    between atoms: CA_2201  and  C_2202
REMARK  1232  A    between atoms: CA_2201  and  CB_2204
REMARK  1233  A    between atoms: CB_2204  and  CG2_2205
REMARK  1234  A    between atoms: CB_2204  and  CG1_2206
REMARK  1235  A    between atoms: N_2207  and  CA_2208
REMARK  1236  A    between atoms: CA_2208  and  C_2209
REMARK  1237  A    between atoms: CA_2208  and  CB_2211
REMARK  1238  A    between atoms: CB_2211  and  OG1_2212
REMARK  1239  A    between atoms: CB_2211  and  CG2_2213
REMARK  1240  A    between atoms: N_2214  and  CA_2215
REMARK  1241  A    between atoms: CA_2215  and  C_2216
REMARK  1242  A    between atoms: CA_2215  and  CB_2218
REMARK  1243  A    between atoms: CB_2218  and  CG_2219
REMARK  1244  A    between atoms: CG_2219  and  CD_2220
REMARK  1245  A    between atoms: N_2223  and  CA_2224
REMARK  1246  A    between atoms: CA_2224  and  C_2225
REMARK  1247  A    between atoms: CA_2224  and  CB_2227
REMARK  1248  A    between atoms: CB_2227  and  CG_2228
REMARK  1249  A    between atoms: CG_2228  and  SD_2229
REMARK  1250  A    between atoms: SD_2229  and  CE_2230
REMARK  1251  A    between atoms: N_2231  and  CA_2232
REMARK  1252  A    between atoms: CA_2232  and  C_2233
REMARK  1253  A    between atoms: CA_2232  and  CB_2235
REMARK  1254  A    between atoms: CB_2235  and  CG_2236
REMARK  1255  A    between atoms: CG_2236  and  CD1_2237
REMARK  1256  A    between atoms: CG_2236  and  CD2_2238
REMARK  1257  A    between atoms: N_2239  and  CA_2240
REMARK  1258  A    between atoms: CA_2240  and  C_2241
REMARK  1259  A    between atoms: CA_2240  and  CB_2243
REMARK  1260  A    between atoms: CB_2243  and  CG_2244
REMARK  1261  A    between atoms: CG_2244  and  CD1_2245
REMARK  1262  A    between atoms: CG_2244  and  CD2_2246
REMARK  1263  A    between atoms: N_2247  and  CA_2248
REMARK  1264  A    between atoms: CA_2248  and  C_2249
REMARK  1265  A    between atoms: CA_2248  and  CB_2251
REMARK  1266  A    between atoms: CB_2251  and  CG_2252
REMARK  1267  A    between atoms: CG_2252  and  CD_2253
REMARK  1268  A    between atoms: N_2256  and  CA_2257
REMARK  1269  A    between atoms: CA_2257  and  C_2258
REMARK  1270  A    between atoms: CA_2257  and  CB_2260
REMARK  1271  A    between atoms: CB_2260  and  CG_2261
REMARK  1272  A    between atoms: CG_2261  and  CD_2262
REMARK  1273  A    between atoms: CD_2262  and  CE_2263
REMARK  1274  A    between atoms: CE_2263  and  NZ_2264
REMARK  1275  A    between atoms: N_2265  and  C_2266
REMARK  1276  A    between atoms: C_2266  and  C_2267
REMARK  1277  A    between atoms: C_2266  and  C_2269
REMARK  1278  A    between atoms: C_2269  and  C_2270
REMARK  1279  A    between atoms: N_2271  and  CA_2272
REMARK  1280  A    between atoms: CA_2272  and  C_2273
REMARK  1281  A    between atoms: CA_2272  and  CB_2275
REMARK  1282  A    between atoms: CB_2275  and  CG_2276
REMARK  1283  A    between atoms: CG_2276  and  CD2_2277
REMARK  1284  A    between atoms: CG_2276  and  CD1_2278
REMARK  1285  A    between atoms: N_2279  and  CA_2280
REMARK  1286  A    between atoms: CA_2280  and  C_2281
REMARK  1287  A    between atoms: CA_2280  and  CB_2283
REMARK  1288  A    between atoms: CB_2283  and  CG_2284
REMARK  1289  A    between atoms: N_2293  and  CA_2294
REMARK  1290  A    between atoms: CA_2294  and  C_2295
REMARK                            x       y       z     vdW  Elec       q    Type
REMARK                         _______ _______ _______ _____ _____    ______ ____
ROOT
ATOM      1  C   UNL     7     -47.813  33.335  14.767  0.00  0.00    +0.164 C 
ENDROOT
BRANCH   1   2
ATOM      2  C   UNL     7     -47.867  34.465  13.742  0.00  0.00    +0.234 C 
ATOM      3  O   UNL     7     -48.438  35.527  14.033  0.00  0.00    -0.274 OA
ATOM      4  N   UNL     7     -47.289  34.263  12.560  0.00  0.00    -0.302 N 
ATOM      5  H   UNL     7     -46.914  33.372  12.372  0.00  0.00    +0.150 HD
BRANCH   4   6
ATOM      6  C   UNL     7     -47.179  35.293  11.522  0.00  0.00    +0.163 C 
BRANCH   6   7
ATOM      7  C   UNL     7     -48.193  35.133  10.391  0.00  0.00    +0.234 C 
ATOM      8  O   UNL     7     -48.211  35.960   9.468  0.00  0.00    -0.274 OA
ATOM      9  N   UNL     7     -49.058  34.083  10.437  0.00  0.00    -0.302 N 
ATOM     10  H   UNL     7     -49.100  33.516  11.241  0.00  0.00    +0.150 HD
BRANCH   9  11
ATOM     11  C   UNL     7     -49.924  33.795   9.295  0.00  0.00    +0.159 C 
BRANCH  11  12
ATOM     12  C   UNL     7     -51.292  34.455   9.430  0.00  0.00    +0.237 C 
ATOM     13  O   UNL     7     -51.840  34.532  10.535  0.00  0.00    -0.274 OA
ATOM     14  N   UNL     7     -51.884  34.873   8.302  0.00  0.00    -0.288 N 
ATOM     15  C   UNL     7     -53.252  35.438   8.322  0.00  0.00    +0.162 C 
ATOM     16  C   UNL     7     -53.324  36.229   7.007  0.00  0.00    +0.033 C 
ATOM     17  C   UNL     7     -52.433  35.463   6.067  0.00  0.00    +0.021 C 
ATOM     18  C   UNL     7     -51.269  34.958   6.961  0.00  0.00    +0.109 C 
BRANCH  15  19
ATOM     19  C   UNL     7     -54.305  34.342   8.338  0.00  0.00    +0.237 C 
ATOM     20  O   UNL     7     -54.005  33.177   8.035  0.00  0.00    -0.274 OA
ATOM     21  N   UNL     7     -55.560  34.691   8.649  0.00  0.00    -0.288 N 
ATOM     22  C   UNL     7     -56.640  33.691   8.635  0.00  0.00    +0.162 C 
ATOM     23  C   UNL     7     -57.910  34.550   8.813  0.00  0.00    +0.033 C 
ATOM     24  C   UNL     7     -57.444  35.748   9.586  0.00  0.00    +0.021 C 
ATOM     25  C   UNL     7     -56.033  36.020   9.092  0.00  0.00    +0.109 C 
BRANCH  22  26
ATOM     26  C   UNL     7     -56.731  32.868   7.361  0.00  0.00    +0.234 C 
ATOM     27  O   UNL     7     -56.973  31.656   7.437  0.00  0.00    -0.274 OA
ATOM     28  N   UNL     7     -56.570  33.488   6.186  0.00  0.00    -0.314 N 
ATOM     29  H   UNL     7     -56.294  34.433   6.153  0.00  0.00    +0.149 HD
BRANCH  28  30
ATOM     30  C   UNL     7     -56.810  32.740   4.952  0.00  0.00    +0.104 C 
BRANCH  30  31
ATOM     31  C   UNL     7     -56.874  33.686   3.739  0.00  0.00    +0.024 C 
BRANCH  31  32
ATOM     32  C   UNL     7     -55.574  34.434   3.369  0.00  0.00    +0.053 C 
BRANCH  32  33
ATOM     33  C   UNL     7     -55.454  35.815   4.042  0.00  0.00    +0.042 C 
ATOM     34  O   UNL     7     -56.167  36.072   5.031  0.00  0.00    -0.550 OA
ATOM     35  O   UNL     7     -54.618  36.634   3.602  0.00  0.00    -0.550 OA
ENDBRANCH  32  33
ENDBRANCH  31  32
ENDBRANCH  30  31
ENDBRANCH  28  30
ENDBRANCH  22  26
ENDBRANCH  15  19
ENDBRANCH  11  12
BRANCH  11  36
ATOM     36  C   UNL     7     -50.131  32.289   9.163  0.00  0.00    +0.034 C 
BRANCH  36  37
ATOM     37  C   UNL     7     -48.868  31.468   8.918  0.00  0.00    -0.015 C 
ATOM     38  C   UNL     7     -49.215  29.983   8.937  0.00  0.00    +0.007 C 
ATOM     39  C   UNL     7     -48.273  31.894   7.590  0.00  0.00    +0.007 C 
ENDBRANCH  36  37
ENDBRANCH  11  36
ENDBRANCH   9  11
ENDBRANCH   6   7
BRANCH   6  40
ATOM     40  C   UNL     7     -45.727  35.306  10.958  0.00  0.00    +0.067 C 
BRANCH  40  41
ATOM     41  C   UNL     7     -44.777  35.542  12.104  0.00  0.00    -0.045 A 
ATOM     42  C   UNL     7     -44.314  34.477  12.874  0.00  0.00    +0.007 A 
ATOM     43  C   UNL     7     -44.461  36.846  12.511  0.00  0.00    +0.007 A 
ATOM     44  C   UNL     7     -43.498  34.703  13.996  0.00  0.00    +0.045 A 
ATOM     45  C   UNL     7     -43.665  37.081  13.629  0.00  0.00    +0.045 A 
ATOM     46  C   UNL     7     -43.186  36.002  14.362  0.00  0.00    +0.117 A 
BRANCH  46  47
ATOM     47  O   UNL     7     -42.400  36.226  15.466  0.00  0.00    -0.507 OA
ATOM     48  H   UNL     7     -42.186  37.103  15.718  0.00  0.00    +0.292 HD
ENDBRANCH  46  47
ENDBRANCH  40  41
ENDBRANCH   6  40
ENDBRANCH   4   6
ENDBRANCH   1   2
BRANCH   1  51
ATOM     49  C   UNL     7     -48.501  31.573  13.248  0.00  0.00    +0.234 C 
ATOM     50  O   UNL     7     -49.411  32.285  12.810  0.00  0.00    -0.274 OA
ATOM     51  N   UNL     7     -47.615  32.024  14.145  0.00  0.00    -0.302 N 
ATOM     52  H   UNL     7     -46.833  31.476  14.386  0.00  0.00    +0.150 HD
BRANCH  49  53
ATOM     53  C   UNL     7     -48.350  30.130  12.771  0.00  0.00    +0.159 C 
BRANCH  53  56
ATOM     54  C   UNL     7     -46.304  30.572  11.504  0.00  0.00    +0.236 C 
ATOM     55  O   UNL     7     -46.604  31.740  11.235  0.00  0.00    -0.274 OA
ATOM     56  N   UNL     7     -46.975  29.810  12.373  0.00  0.00    -0.302 N 
ATOM     57  H   UNL     7     -46.536  29.016  12.755  0.00  0.00    +0.150 HD
BRANCH  54  58
ATOM     58  C   UNL     7     -45.075  29.940  10.865  0.00  0.00    +0.187 C 
BRANCH  58  61
ATOM     59  C   UNL     7     -45.108  29.005   8.577  0.00  0.00    +0.231 C 
ATOM     60  O   UNL     7     -45.092  27.825   8.935  0.00  0.00    -0.274 OA
ATOM     61  N   UNL     7     -45.199  30.032   9.420  0.00  0.00    -0.301 N 
ATOM     62  H   UNL     7     -45.363  30.923   9.034  0.00  0.00    +0.150 HD
BRANCH  59  63
ATOM     63  C   UNL     7     -45.014  29.434   7.121  0.00  0.00    +0.200 C 
BRANCH  63  66
ATOM     64  C   UNL     7     -46.673  28.051   5.981  0.00  0.00    +0.233 C 
ATOM     65  O   UNL     7     -47.544  28.199   6.843  0.00  0.00    -0.274 OA
ATOM     66  N   UNL     7     -45.403  28.443   6.146  0.00  0.00    -0.305 N 
ATOM     67  H   UNL     7     -44.707  28.039   5.579  0.00  0.00    +0.149 HD
BRANCH  64  68
ATOM     68  C   UNL     7     -46.974  27.354   4.658  0.00  0.00    +0.156 C 
ATOM     69  C   UNL     7     -46.677  28.267   3.465  0.00  0.00    +0.038 C 
BRANCH  68  72
ATOM     70  C   UNL     7     -48.702  25.744   4.127  0.00  0.00    +0.262 C 
ATOM     71  O   UNL     7     -47.878  24.862   3.882  0.00  0.00    -0.270 OA
ATOM     72  N   UNL     7     -48.361  26.926   4.623  0.00  0.00    -0.300 N 
ATOM     73  H   UNL     7     -49.061  27.524   4.974  0.00  0.00    +0.150 HD
BRANCH  70  74
ATOM     74  C   UNL     7     -50.178  25.492   3.900  0.00  0.00    +0.148 C 
BRANCH  74  75
ATOM     75  N   UNL     7     -50.414  25.275   2.470  0.00  0.00    +0.227 N 
ATOM     76  H   UNL     7     -50.121  26.101   1.948  0.00  0.00    +0.200 HD
ATOM     77  H   UNL     7     -51.407  25.107   2.311  0.00  0.00    +0.200 HD
ATOM     78  H   UNL     7     -49.878  24.466   2.156  0.00  0.00    +0.200 HD
ENDBRANCH  74  75
BRANCH  74  79
ATOM     79  C   UNL     7     -50.597  24.289   4.742  0.00  0.00    +0.067 C 
BRANCH  79  80
ATOM     80  C   UNL     7     -52.066  23.985   4.997  0.00  0.00    -0.011 C 
ATOM     81  C   UNL     7     -52.155  23.175   6.282  0.00  0.00    +0.007 C 
ATOM     82  C   UNL     7     -52.858  25.270   5.129  0.00  0.00    +0.007 C 
ENDBRANCH  79  80
ENDBRANCH  74  79
ENDBRANCH  70  74
ENDBRANCH  68  72
ENDBRANCH  64  68
ENDBRANCH  63  66
ENDBRANCH  59  63
ENDBRANCH  58  61
BRANCH  58  83
ATOM     83  C   UNL     7     -43.800  30.651  11.320  0.00  0.00    +0.141 C 
ATOM     84  C   UNL     7     -43.560  30.422  12.802  0.00  0.00    +0.040 C 
BRANCH  83  85
ATOM     85  O   UNL     7     -42.693  30.171  10.524  0.00  0.00    -0.390 OA
ATOM     86  H   UNL     7     -42.596  29.214  10.648  0.00  0.00    +0.210 HD
ENDBRANCH  83  85
ENDBRANCH  58  83
ENDBRANCH  54  58
ENDBRANCH  53  56
BRANCH  53  87
ATOM     87  C   UNL     7     -48.817  29.169  13.860  0.00  0.00    +0.034 C 
BRANCH  87  88
ATOM     88  C   UNL     7     -50.283  29.256  14.278  0.00  0.00    -0.015 C 
ATOM     89  C   UNL     7     -51.231  29.138  13.084  0.00  0.00    +0.007 C 
ATOM     90  C   UNL     7     -50.584  28.178  15.296  0.00  0.00    +0.007 C 
ENDBRANCH  87  88
ENDBRANCH  53  87
ENDBRANCH  49  53
ENDBRANCH   1  51
BRANCH   1  91
ATOM     91  C   UNL     7     -46.696  33.632  15.767  0.00  0.00    +0.083 C 
BRANCH  91  92
ATOM     92  C   UNL     7     -46.984  33.098  17.169  0.00  0.00    +0.044 C 
ATOM     93  O   UNL     7     -48.076  33.354  17.720  0.00  0.00    -0.550 OA
ATOM     94  O   UNL     7     -46.086  32.450  17.744  0.00  0.00    -0.550 OA
ENDBRANCH  91  92
ENDBRANCH   1  91
TORSDOF 35
REMARK  Name = /Users/wangyang/Desktop/Breast_cancer_brain_metastasis/wang_Gene/AIDD/15_Protein_ligand_docking/data_7ztl/protein.pdb
REMARK  1290 active torsions:
REMARK  status: ('A' for Active; 'I' for Inactive)
REMARK    1  A    between atoms: N_1  and  CA_2
REMARK    2  A    between atoms: CA_2  and  C_3
REMARK    3  A    between atoms: N_5  and  CA_6
REMARK    4  A    between atoms: CA_6  and  C_7
REMARK    5  A    between atoms: CA_6  and  CB_9
REMARK    6  A    between atoms: N_10  and  CA_11
REMARK    7  A    between atoms: CA_11  and  C_12
REMARK    8  A    between atoms: CA_11  and  CB_14
REMARK    9  A    between atoms: CB_14  and  CG_15
REMARK   10  A    between atoms: N_24  and  CA_25
REMARK   11  A    between atoms: CA_25  and  C_26
REMARK   12  A    between atoms: CA_25  and  CB_28
REMARK   13  A    between atoms: N_29  and  CA_30
REMARK   14  A    between atoms: CA_30  and  C_31
REMARK   15  A    between atoms: CA_30  and  CB_33
REMARK   16  A    between atoms: CB_33  and  CG_34
REMARK   17  A    between atoms: CG_34  and  CD1_35
REMARK   18  A    between atoms: CG_34  and  CD2_36
REMARK   19  A    between atoms: N_37  and  CA_38
REMARK   20  A    between atoms: CA_38  and  C_39
REMARK   21  A    between atoms: CA_38  and  CB_41
REMARK   22  A    between atoms: CB_41  and  CG_42
REMARK   23  A    between atoms: CG_42  and  CD_43
REMARK   24  A    between atoms: N_46  and  CA_47
REMARK   25  A    between atoms: CA_47  and  C_48
REMARK   26  A    between atoms: CA_47  and  CB_50
REMARK   27  A    between atoms: CB_50  and  CG_51
REMARK   28  A    between atoms: N_54  and  CA_55
REMARK   29  A    between atoms: CA_55  and  C_56
REMARK   30  A    between atoms: CA_55  and  CB_58
REMARK   31  A    between atoms: CB_58  and  CG_59
REMARK   32  A    between atoms: N_65  and  CA_66
REMARK   33  A    between atoms: CA_66  and  C_67
REMARK   34  A    between atoms: CA_66  and  CB_69
REMARK   35  A    between atoms: CB_69  and  CG_70
REMARK   36  A    between atoms: CG_70  and  CD_71
REMARK   37  A    between atoms: N_74  and  CA_75
REMARK   38  A    between atoms: CA_75  and  C_76
REMARK   39  A    between atoms: CA_75  and  CB_78
REMARK   40  A    between atoms: CB_78  and  CG1_79
REMARK   41  A    between atoms: CB_78  and  CG2_80
REMARK   42  A    between atoms: CG1_79  and  CD1_81
REMARK   43  A    between atoms: N_82  and  CA_83
REMARK   44  A    between atoms: CA_83  and  C_84
REMARK   45  A    between atoms: N_86  and  CA_87
REMARK   46  A    between atoms: CA_87  and  C_88
REMARK   47  A    between atoms: CA_87  and  CB_90
REMARK   48  A    between atoms: CB_90  and  CG_91
REMARK   49  A    between atoms: CG_91  and  CD_92
REMARK   50  A    between atoms: CD_92  and  NE_93
REMARK   51  A    between atoms: CA_98  and  C_99
REMARK   52  A    between atoms: N_104  and  CA_105
REMARK   53  A    between atoms: CA_105  and  C_106
REMARK   54  A    between atoms: CA_105  and  CB_108
REMARK   55  A    between atoms: CB_108  and  CG_109
REMARK   56  A    between atoms: CG_109  and  CD1_110
REMARK   57  A    between atoms: CG_109  and  CD2_111
REMARK   58  A    between atoms: N_112  and  CA_113
REMARK   59  A    between atoms: CA_113  and  C_114
REMARK   60  A    between atoms: N_116  and  C_117
REMARK   61  A    between atoms: C_117  and  C_118
REMARK   62  A    between atoms: C_117  and  C_120
REMARK   63  A    between atoms: C_120  and  C_121
REMARK   64  A    between atoms: C_121  and  C_122
REMARK   65  A    between atoms: N_123  and  CA_124
REMARK   66  A    between atoms: CA_124  and  C_125
REMARK   67  A    between atoms: N_127  and  CA_128
REMARK   68  A    between atoms: CA_128  and  C_129
REMARK   69  A    between atoms: CA_128  and  CB_131
REMARK   70  A    between atoms: CB_131  and  CG_132
REMARK   71  A    between atoms: CG_132  and  CD_133
REMARK   72  A    between atoms: CD_133  and  CE_134
REMARK   73  A    between atoms: CE_134  and  NZ_135
REMARK   74  A    between atoms: N_136  and  CA_137
REMARK   75  A    between atoms: CA_137  and  C_138
REMARK   76  A    between atoms: CA_137  and  CB_140
REMARK   77  A    between atoms: CB_140  and  CG_141
REMARK   78  A    between atoms: N_147  and  CA_148
REMARK   79  A    between atoms: CA_148  and  C_149
REMARK   80  A    between atoms: N_151  and  CA_152
REMARK   81  A    between atoms: CA_152  and  C_153
REMARK   82  A    between atoms: CA_152  and  CB_155
REMARK   83  A    between atoms: CB_155  and  CG_156
REMARK   84  A    between atoms: N_159  and  CA_160
REMARK   85  A    between atoms: CA_160  and  C_161
REMARK   86  A    between atoms: CA_160  and  CB_163
REMARK   87  A    between atoms: CB_163  and  CG1_164
REMARK   88  A    between atoms: CB_163  and  CG2_165
REMARK   89  A    between atoms: N_166  and  CA_167
REMARK   90  A    between atoms: CA_167  and  C_168
REMARK   91  A    between atoms: CA_167  and  CB_170
REMARK   92  A    between atoms: CB_170  and  CG_171
REMARK   93  A    between atoms: CZ_176  and  OH_177
REMARK   94  A    between atoms: N_178  and  CA_179
REMARK   95  A    between atoms: CA_179  and  C_180
REMARK   96  A    between atoms: CA_179  and  CB_182
REMARK   97  A    between atoms: CB_182  and  CG_183
REMARK   98  A    between atoms: CG_183  and  CD1_184
REMARK   99  A    between atoms: CG_183  and  CD2_185
REMARK  100  A    between atoms: N_186  and  CA_187
REMARK  101  A    between atoms: CA_187  and  C_188
REMARK  102  A    between atoms: CA_187  and  CB_190
REMARK  103  A    between atoms: N_191  and  CA_192
REMARK  104  A    between atoms: CA_192  and  C_193
REMARK  105  A    between atoms: CA_192  and  CB_195
REMARK  106  A    between atoms: CB_195  and  CG_196
REMARK  107  A    between atoms: CG_196  and  CD_197
REMARK  108  A    between atoms: CD_197  and  NE_198
REMARK  109  A    between atoms: N_202  and  CA_203
REMARK  110  A    between atoms: CA_203  and  C_204
REMARK  111  A    between atoms: CA_203  and  CB_206
REMARK  112  A    between atoms: CB_206  and  CG_207
REMARK  113  A    between atoms: CG_207  and  CD_208
REMARK  114  A    between atoms: N_211  and  CA_212
REMARK  115  A    between atoms: CA_212  and  C_213
REMARK  116  A    between atoms: CA_212  and  CB_215
REMARK  117  A    between atoms: CB_215  and  CG_216
REMARK  118  A    between atoms: CG_216  and  CD_217
REMARK  119  A    between atoms: CD_217  and  CE_218
REMARK  120  A    between atoms: CE_218  and  NZ_219
REMARK  121  A    between atoms: N_220  and  CA_221
REMARK  122  A    between atoms: CA_221  and  C_222
REMARK  123  A    between atoms: CA_221  and  CB_224
REMARK  124  A    between atoms: N_225  and  CA_226
REMARK  125  A    between atoms: CA_226  and  C_227
REMARK  126  A    between atoms: CA_226  and  CB_229
REMARK  127  A    between atoms: CB_229  and  OG_230
REMARK  128  A    between atoms: N_231  and  CA_232
REMARK  129  A    between atoms: CA_232  and  C_233
REMARK  130  A    between atoms: CA_232  and  CB_235
REMARK  131  A    between atoms: CB_235  and  CG_236
REMARK  132  A    between atoms: CG_236  and  CD_237
REMARK  133  A    between atoms: CD_237  and  CE_238
REMARK  134  A    between atoms: CE_238  and  NZ_239
REMARK  135  A    between atoms: N_240  and  CA_241
REMARK  136  A    between atoms: CA_241  and  C_242
REMARK  137  A    between atoms: CA_241  and  CB_244
REMARK  138  A    between atoms: CB_244  and  CG_245
REMARK  139  A    between atoms: N_251  and  CA_252
REMARK  140  A    between atoms: CA_252  and  C_253
REMARK  141  A    between atoms: CA_252  and  CB_255
REMARK  142  A    between atoms: CB_255  and  CG1_256
REMARK  143  A    between atoms: CB_255  and  CG2_257
REMARK  144  A    between atoms: CG1_256  and  CD1_258
REMARK  145  A    between atoms: N_259  and  CA_260
REMARK  146  A    between atoms: CA_260  and  C_261
REMARK  147  A    between atoms: CA_260  and  CB_263
REMARK  148  A    between atoms: CB_263  and  CG_264
REMARK  149  A    between atoms: CG_264  and  CD1_265
REMARK  150  A    between atoms: CG_264  and  CD2_266
REMARK  151  A    between atoms: N_267  and  CA_268
REMARK  152  A    between atoms: CA_268  and  C_269
REMARK  153  A    between atoms: CA_268  and  CB_271
REMARK  154  A    between atoms: N_272  and  CA_273
REMARK  155  A    between atoms: CA_273  and  C_274
REMARK  156  A    between atoms: CA_273  and  CB_276
REMARK  157  A    between atoms: CB_276  and  CG_277
REMARK  158  A    between atoms: CG_277  and  CD2_278
REMARK  159  A    between atoms: CG_277  and  CD1_279
REMARK  160  A    between atoms: N_280  and  CA_281
REMARK  161  A    between atoms: CA_281  and  C_282
REMARK  162  A    between atoms: CA_281  and  CB_284
REMARK  163  A    between atoms: CB_284  and  CG_285
REMARK  164  A    between atoms: CG_285  and  CD_286
REMARK  165  A    between atoms: CD_286  and  CE_287
REMARK  166  A    between atoms: CE_287  and  NZ_288
REMARK  167  A    between atoms: N_289  and  CA_290
REMARK  168  A    between atoms: CA_290  and  C_291
REMARK  169  A    between atoms: CA_290  and  CB_293
REMARK  170  A    between atoms: CB_293  and  CG2_294
REMARK  171  A    between atoms: CB_293  and  CG1_295
REMARK  172  A    between atoms: N_296  and  CA_297
REMARK  173  A    between atoms: CA_297  and  C_298
REMARK  174  A    between atoms: CA_297  and  CB_300
REMARK  175  A    between atoms: CB_300  and  CG_301
REMARK  176  A    between atoms: CG_301  and  CD1_302
REMARK  177  A    between atoms: CG_301  and  CD2_303
REMARK  178  A    between atoms: N_304  and  CA_305
REMARK  179  A    between atoms: CA_305  and  C_306
REMARK  180  A    between atoms: CA_305  and  CB_308
REMARK  181  A    between atoms: CB_308  and  CG_309
REMARK  182  A    between atoms: N_315  and  CA_316
REMARK  183  A    between atoms: CA_316  and  C_317
REMARK  184  A    between atoms: CA_316  and  CB_319
REMARK  185  A    between atoms: CB_319  and  CG_320
REMARK  186  A    between atoms: CG_320  and  CD_321
REMARK  187  A    between atoms: CD_321  and  CE_322
REMARK  188  A    between atoms: CE_322  and  NZ_323
REMARK  189  A    between atoms: N_324  and  CA_325
REMARK  190  A    between atoms: CA_325  and  C_326
REMARK  191  A    between atoms: CA_325  and  CB_328
REMARK  192  A    between atoms: N_329  and  CA_330
REMARK  193  A    between atoms: CA_330  and  C_331
REMARK  194  A    between atoms: CA_330  and  CB_333
REMARK  195  A    between atoms: CB_333  and  CG_334
REMARK  196  A    between atoms: CG_334  and  CD_335
REMARK  197  A    between atoms: N_338  and  CA_339
REMARK  198  A    between atoms: CA_339  and  C_340
REMARK  199  A    between atoms: CA_339  and  CB_342
REMARK  200  A    between atoms: CB_342  and  CG_343
REMARK  201  A    between atoms: CG_343  and  CD1_344
REMARK  202  A    between atoms: CG_343  and  CD2_345
REMARK  203  A    between atoms: N_346  and  CA_347
REMARK  204  A    between atoms: CA_347  and  C_348
REMARK  205  A    between atoms: CA_347  and  CB_350
REMARK  206  A    between atoms: CB_350  and  CG_351
REMARK  207  A    between atoms: CG_351  and  CD_352
REMARK  208  A    between atoms: N_355  and  C_356
REMARK  209  A    between atoms: C_356  and  C_357
REMARK  210  A    between atoms: C_356  and  C_359
REMARK  211  A    between atoms: C_359  and  C_360
REMARK  212  A    between atoms: N_361  and  CA_362
REMARK  213  A    between atoms: CA_362  and  C_363
REMARK  214  A    between atoms: CA_362  and  CB_365
REMARK  215  A    between atoms: N_366  and  CA_367
REMARK  216  A    between atoms: CA_367  and  C_368
REMARK  217  A    between atoms: N_370  and  CA_371
REMARK  218  A    between atoms: CA_371  and  C_372
REMARK  219  A    between atoms: CA_371  and  CB_374
REMARK  220  A    between atoms: CB_374  and  CG2_375
REMARK  221  A    between atoms: CB_374  and  CG1_376
REMARK  222  A    between atoms: N_377  and  CA_378
REMARK  223  A    between atoms: CA_378  and  C_379
REMARK  224  A    between atoms: CA_378  and  CB_381
REMARK  225  A    between atoms: CB_381  and  CG_382
REMARK  226  A    between atoms: CG_382  and  CD_383
REMARK  227  A    between atoms: N_386  and  CA_387
REMARK  228  A    between atoms: CA_387  and  C_388
REMARK  229  A    between atoms: CA_387  and  CB_390
REMARK  230  A    between atoms: CB_390  and  CG_391
REMARK  231  A    between atoms: N_396  and  CA_397
REMARK  232  A    between atoms: CA_397  and  C_398
REMARK  233  A    between atoms: CA_397  and  CB_400
REMARK  234  A    between atoms: CB_400  and  CG_401
REMARK  235  A    between atoms: CG_401  and  CD_402
REMARK  236  A    between atoms: N_405  and  CA_406
REMARK  237  A    between atoms: CA_406  and  C_407
REMARK  238  A    between atoms: CA_406  and  CB_409
REMARK  239  A    between atoms: CB_409  and  CG_410
REMARK  240  A    between atoms: CG_410  and  CD2_411
REMARK  241  A    between atoms: CG_410  and  CD1_412
REMARK  242  A    between atoms: N_413  and  CA_414
REMARK  243  A    between atoms: CA_414  and  C_415
REMARK  244  A    between atoms: CA_414  and  CB_417
REMARK  245  A    between atoms: CB_417  and  CG_418
REMARK  246  A    between atoms: CG_418  and  CD_419
REMARK  247  A    between atoms: CD_419  and  NE_420
REMARK  248  A    between atoms: N_424  and  CA_425
REMARK  249  A    between atoms: CA_425  and  C_426
REMARK  250  A    between atoms: CA_425  and  CB_428
REMARK  251  A    between atoms: CB_428  and  CG_429
REMARK  252  A    between atoms: CG_429  and  CD_430
REMARK  253  A    between atoms: CD_430  and  NE_431
REMARK  254  A    between atoms: N_435  and  CA_436
REMARK  255  A    between atoms: CA_436  and  C_437
REMARK  256  A    between atoms: CA_436  and  CB_439
REMARK  257  A    between atoms: CB_439  and  CG_440
REMARK  258  A    between atoms: CG_440  and  CD_441
REMARK  259  A    between atoms: N_444  and  CA_445
REMARK  260  A    between atoms: CA_445  and  C_446
REMARK  261  A    between atoms: CA_445  and  CB_448
REMARK  262  A    between atoms: CB_448  and  CG1_449
REMARK  263  A    between atoms: CB_448  and  CG2_450
REMARK  264  A    between atoms: N_451  and  C_452
REMARK  265  A    between atoms: C_452  and  C_453
REMARK  266  A    between atoms: C_452  and  C_455
REMARK  267  A    between atoms: C_455  and  C_456
REMARK  268  A    between atoms: N_457  and  CA_458
REMARK  269  A    between atoms: CA_458  and  C_459
REMARK  270  A    between atoms: CA_458  and  CB_461
REMARK  271  A    between atoms: CB_461  and  CG1_462
REMARK  272  A    between atoms: CB_461  and  CG2_463
REMARK  273  A    between atoms: CG1_462  and  CD1_464
REMARK  274  A    between atoms: N_465  and  CA_466
REMARK  275  A    between atoms: CA_466  and  C_467
REMARK  276  A    between atoms: CA_466  and  CB_469
REMARK  277  A    between atoms: CB_469  and  CG_470
REMARK  278  A    between atoms: CG_470  and  CD_471
REMARK  279  A    between atoms: N_474  and  C_475
REMARK  280  A    between atoms: C_475  and  C_476
REMARK  281  A    between atoms: C_475  and  C_478
REMARK  282  A    between atoms: C_478  and  O_479
REMARK  283  A    between atoms: N_480  and  C_481
REMARK  284  A    between atoms: C_481  and  C_482
REMARK  285  A    between atoms: C_481  and  C_484
REMARK  286  A    between atoms: C_484  and  C_485
REMARK  287  A    between atoms: N_490  and  C_491
REMARK  288  A    between atoms: C_491  and  C_492
REMARK  289  A    between atoms: C_491  and  C_494
REMARK  290  A    between atoms: C_494  and  C_495
REMARK  291  A    between atoms: C_495  and  C_496
REMARK  292  A    between atoms: C_495  and  C_497
REMARK  293  A    between atoms: N_498  and  C_499
REMARK  294  A    between atoms: C_499  and  C_500
REMARK  295  A    between atoms: C_499  and  C_502
REMARK  296  A    between atoms: C_502  and  C_503
REMARK  297  A    between atoms: C_503  and  C_504
REMARK  298  A    between atoms: C_504  and  N_505
REMARK  299  A    between atoms: N_509  and  C_510
REMARK  300  A    between atoms: C_510  and  C_511
REMARK  301  A    between atoms: C_510  and  C_513
REMARK  302  A    between atoms: C_513  and  C_514
REMARK  303  A    between atoms: C_520  and  C_521
REMARK  304  A    between atoms: N_526  and  C_527
REMARK  305  A    between atoms: C_527  and  C_528
REMARK  306  A    between atoms: C_527  and  C_530
REMARK  307  A    between atoms: C_530  and  C_531
REMARK  308  A    between atoms: N_534  and  C_535
REMARK  309  A    between atoms: C_535  and  C_536
REMARK  310  A    between atoms: C_535  and  C_538
REMARK  311  A    between atoms: C_538  and  C_539
REMARK  312  A    between atoms: C_538  and  C_540
REMARK  313  A    between atoms: C_539  and  C_541
REMARK  314  A    between atoms: N_542  and  C_543
REMARK  315  A    between atoms: C_543  and  C_544
REMARK  316  A    between atoms: C_543  and  C_546
REMARK  317  A    between atoms: C_546  and  C_547
REMARK  318  A    between atoms: C_547  and  C_548
REMARK  319  A    between atoms: C_547  and  C_549
REMARK  320  A    between atoms: N_550  and  C_551
REMARK  321  A    between atoms: C_551  and  C_552
REMARK  322  A    between atoms: C_551  and  C_554
REMARK  323  A    between atoms: C_554  and  C_555
REMARK  324  A    between atoms: C_555  and  C_556
REMARK  325  A    between atoms: C_556  and  N_557
REMARK  326  A    between atoms: N_561  and  C_562
REMARK  327  A    between atoms: C_562  and  C_567
REMARK  328  A    between atoms: C_563  and  C_564
REMARK  329  A    between atoms: C_568  and  C_569
REMARK  330  A    between atoms: C_568  and  C_571
REMARK  331  A    between atoms: C_569  and  C_572
REMARK  332  A    between atoms: C_569  and  C_573
REMARK  333  A    between atoms: C_570  and  C_573
REMARK  334  A    between atoms: N_574  and  CA_575
REMARK  335  A    between atoms: CA_575  and  C_576
REMARK  336  A    between atoms: CA_575  and  CB_578
REMARK  337  A    between atoms: CB_578  and  CG_579
REMARK  338  A    between atoms: CZ_584  and  OH_585
REMARK  339  A    between atoms: N_586  and  CA_587
REMARK  340  A    between atoms: CA_587  and  C_588
REMARK  341  A    between atoms: N_590  and  CA_591
REMARK  342  A    between atoms: CA_591  and  C_592
REMARK  343  A    between atoms: CA_591  and  CB_594
REMARK  344  A    between atoms: CB_594  and  CG_595
REMARK  345  A    between atoms: CZ_600  and  OH_601
REMARK  346  A    between atoms: N_602  and  CA_603
REMARK  347  A    between atoms: CA_603  and  C_604
REMARK  348  A    between atoms: CA_603  and  CB_606
REMARK  349  A    between atoms: CB_606  and  CG_607
REMARK  350  A    between atoms: N_613  and  CA_614
REMARK  351  A    between atoms: CA_614  and  C_615
REMARK  352  A    between atoms: CA_614  and  CB_617
REMARK  353  A    between atoms: CB_617  and  CG_618
REMARK  354  A    between atoms: N_623  and  CA_624
REMARK  355  A    between atoms: CA_624  and  C_625
REMARK  356  A    between atoms: CA_624  and  CB_627
REMARK  357  A    between atoms: CB_627  and  CG_628
REMARK  358  A    between atoms: N_631  and  CA_632
REMARK  359  A    between atoms: CA_632  and  C_633
REMARK  360  A    between atoms: CA_632  and  CB_635
REMARK  361  A    between atoms: N_636  and  CA_637
REMARK  362  A    between atoms: CA_637  and  C_638
REMARK  363  A    between atoms: CA_637  and  CB_640
REMARK  364  A    between atoms: CB_640  and  OG1_641
REMARK  365  A    between atoms: CB_640  and  CG2_642
REMARK  366  A    between atoms: N_643  and  CA_644
REMARK  367  A    between atoms: CA_644  and  C_645
REMARK  368  A    between atoms: CA_644  and  CB_647
REMARK  369  A    between atoms: CB_647  and  CG_648
REMARK  370  A    between atoms: CG_648  and  CD_649
REMARK  371  A    between atoms: CD_649  and  NE_650
REMARK  372  A    between atoms: N_654  and  CA_655
REMARK  373  A    between atoms: CA_655  and  C_656
REMARK  374  A    between atoms: CA_655  and  CB_658
REMARK  375  A    between atoms: CB_658  and  CG1_659
REMARK  376  A    between atoms: CB_658  and  CG2_660
REMARK  377  A    between atoms: N_661  and  CA_662
REMARK  378  A    between atoms: CA_662  and  C_663
REMARK  379  A    between atoms: CA_662  and  CB_665
REMARK  380  A    between atoms: CB_665  and  CG_666
REMARK  381  A    between atoms: CZ_671  and  OH_672
REMARK  382  A    between atoms: N_673  and  CA_674
REMARK  383  A    between atoms: CA_674  and  C_675
REMARK  384  A    between atoms: CA_674  and  CB_677
REMARK  385  A    between atoms: CB_677  and  CG_678
REMARK  386  A    between atoms: CG_678  and  CD2_679
REMARK  387  A    between atoms: CG_678  and  CD1_680
REMARK  388  A    between atoms: N_681  and  CA_682
REMARK  389  A    between atoms: CA_682  and  C_683
REMARK  390  A    between atoms: CA_682  and  CB_685
REMARK  391  A    between atoms: CB_685  and  CG1_686
REMARK  392  A    between atoms: CB_685  and  CG2_687
REMARK  393  A    between atoms: CG1_686  and  CD1_688
REMARK  394  A    between atoms: N_689  and  CA_690
REMARK  395  A    between atoms: CA_690  and  C_691
REMARK  396  A    between atoms: CA_690  and  CB_693
REMARK  397  A    between atoms: CB_693  and  CG_694
REMARK  398  A    between atoms: CG_694  and  CD2_695
REMARK  399  A    between atoms: CG_694  and  CD1_696
REMARK  400  A    between atoms: N_697  and  CA_698
REMARK  401  A    between atoms: CA_698  and  C_699
REMARK  402  A    between atoms: CA_698  and  CB_701
REMARK  403  A    between atoms: CB_701  and  CG_702
REMARK  404  A    between atoms: CG_702  and  CD_703
REMARK  405  A    between atoms: N_706  and  CA_707
REMARK  406  A    between atoms: CA_707  and  C_708
REMARK  407  A    between atoms: CA_707  and  CB_710
REMARK  408  A    between atoms: CB_710  and  CG_711
REMARK  409  A    between atoms: CZ_716  and  OH_717
REMARK  410  A    between atoms: N_718  and  CA_719
REMARK  411  A    between atoms: CA_719  and  C_720
REMARK  412  A    between atoms: CA_719  and  CB_722
REMARK  413  A    between atoms: CA_724  and  C_725
REMARK  414  A    between atoms: N_730  and  CA_731
REMARK  415  A    between atoms: CA_731  and  C_732
REMARK  416  A    between atoms: CA_731  and  CB_734
REMARK  417  A    between atoms: CB_734  and  CG_735
REMARK  418  A    between atoms: CG_735  and  CD1_736
REMARK  419  A    between atoms: CG_735  and  CD2_737
REMARK  420  A    between atoms: N_738  and  CA_739
REMARK  421  A    between atoms: CA_739  and  C_740
REMARK  422  A    between atoms: N_742  and  CA_743
REMARK  423  A    between atoms: CA_743  and  C_744
REMARK  424  A    between atoms: CA_743  and  CB_746
REMARK  425  A    between atoms: CB_746  and  OG1_747
REMARK  426  A    between atoms: CB_746  and  CG2_748
REMARK  427  A    between atoms: N_749  and  CA_750
REMARK  428  A    between atoms: CA_750  and  C_751
REMARK  429  A    between atoms: CA_750  and  CB_753
REMARK  430  A    between atoms: CB_753  and  CG2_754
REMARK  431  A    between atoms: CB_753  and  CG1_755
REMARK  432  A    between atoms: N_756  and  CA_757
REMARK  433  A    between atoms: CA_757  and  C_758
REMARK  434  A    between atoms: CA_757  and  CB_760
REMARK  435  A    between atoms: CB_760  and  CG_761
REMARK  436  A    between atoms: CZ_766  and  OH_767
REMARK  437  A    between atoms: N_768  and  C_769
REMARK  438  A    between atoms: C_769  and  C_770
REMARK  439  A    between atoms: C_769  and  C_772
REMARK  440  A    between atoms: C_772  and  C_773
REMARK  441  A    between atoms: N_774  and  CA_775
REMARK  442  A    between atoms: CA_775  and  C_776
REMARK  443  A    between atoms: CA_775  and  CB_778
REMARK  444  A    between atoms: CB_778  and  CG_779
REMARK  445  A    between atoms: CG_779  and  CD_780
REMARK  446  A    between atoms: N_783  and  CA_784
REMARK  447  A    between atoms: CA_784  and  C_785
REMARK  448  A    between atoms: CA_784  and  CB_787
REMARK  449  A    between atoms: CB_787  and  CG_788
REMARK  450  A    between atoms: CG_788  and  CD2_789
REMARK  451  A    between atoms: CG_788  and  CD1_790
REMARK  452  A    between atoms: N_791  and  CA_792
REMARK  453  A    between atoms: CA_792  and  C_793
REMARK  454  A    between atoms: CA_792  and  CB_795
REMARK  455  A    between atoms: CB_795  and  CG_796
REMARK  456  A    between atoms: CG_796  and  CD_797
REMARK  457  A    between atoms: N_800  and  CA_801
REMARK  458  A    between atoms: CA_801  and  C_802
REMARK  459  A    between atoms: CA_801  and  CB_804
REMARK  460  A    between atoms: CB_804  and  CG_805
REMARK  461  A    between atoms: CG_805  and  CD_806
REMARK  462  A    between atoms: CD_806  and  CE_807
REMARK  463  A    between atoms: CE_807  and  NZ_808
REMARK  464  A    between atoms: N_809  and  CA_810
REMARK  465  A    between atoms: CA_810  and  C_811
REMARK  466  A    between atoms: CA_810  and  CB_813
REMARK  467  A    between atoms: CB_813  and  CG_814
REMARK  468  A    between atoms: CG_814  and  CD1_815
REMARK  469  A    between atoms: CG_814  and  CD2_816
REMARK  470  A    between atoms: N_817  and  CA_818
REMARK  471  A    between atoms: CA_818  and  C_819
REMARK  472  A    between atoms: CA_818  and  CB_821
REMARK  473  A    between atoms: CB_821  and  OG_822
REMARK  474  A    between atoms: N_823  and  CA_824
REMARK  475  A    between atoms: CA_824  and  C_825
REMARK  476  A    between atoms: CA_824  and  CB_827
REMARK  477  A    between atoms: CB_827  and  CG_828
REMARK  478  A    between atoms: CG_828  and  CD_829
REMARK  479  A    between atoms: CD_829  and  CE_830
REMARK  480  A    between atoms: CE_830  and  NZ_831
REMARK  481  A    between atoms: N_832  and  CA_833
REMARK  482  A    between atoms: CA_833  and  C_834
REMARK  483  A    between atoms: CA_833  and  CB_836
REMARK  484  A    between atoms: CB_836  and  CG_837
REMARK  485  A    between atoms: N_843  and  CA_844
REMARK  486  A    between atoms: CA_844  and  C_845
REMARK  487  A    between atoms: CA_844  and  CB_847
REMARK  488  A    between atoms: CB_847  and  CG_848
REMARK  489  A    between atoms: N_851  and  CA_852
REMARK  490  A    between atoms: CA_852  and  C_853
REMARK  491  A    between atoms: CA_852  and  CB_855
REMARK  492  A    between atoms: CB_855  and  CG_856
REMARK  493  A    between atoms: CG_856  and  CD_857
REMARK  494  A    between atoms: N_860  and  CA_861
REMARK  495  A    between atoms: CA_861  and  C_862
REMARK  496  A    between atoms: CA_861  and  CB_864
REMARK  497  A    between atoms: CB_864  and  CG_865
REMARK  498  A    between atoms: CG_865  and  CD_866
REMARK  499  A    between atoms: N_869  and  CA_870
REMARK  500  A    between atoms: CA_870  and  C_871
REMARK  501  A    between atoms: CA_870  and  CB_873
REMARK  502  A    between atoms: CB_873  and  CG_874
REMARK  503  A    between atoms: CG_874  and  CD_875
REMARK  504  A    between atoms: CD_875  and  NE_876
REMARK  505  A    between atoms: N_880  and  CA_881
REMARK  506  A    between atoms: CA_881  and  C_882
REMARK  507  A    between atoms: CA_881  and  CB_884
REMARK  508  A    between atoms: CB_884  and  OG1_885
REMARK  509  A    between atoms: CB_884  and  CG2_886
REMARK  510  A    between atoms: N_887  and  CA_888
REMARK  511  A    between atoms: CA_888  and  C_889
REMARK  512  A    between atoms: CA_888  and  CB_891
REMARK  513  A    between atoms: N_892  and  CA_893
REMARK  514  A    between atoms: CA_893  and  C_894
REMARK  515  A    between atoms: CA_893  and  CB_896
REMARK  516  A    between atoms: CB_896  and  OG1_897
REMARK  517  A    between atoms: CB_896  and  CG2_898
REMARK  518  A    between atoms: N_899  and  CA_900
REMARK  519  A    between atoms: CA_900  and  C_901
REMARK  520  A    between atoms: CA_900  and  CB_903
REMARK  521  A    between atoms: CB_903  and  CG_904
REMARK  522  A    between atoms: CZ_909  and  OH_910
REMARK  523  A    between atoms: N_911  and  CA_912
REMARK  524  A    between atoms: CA_912  and  C_913
REMARK  525  A    between atoms: CA_912  and  CB_915
REMARK  526  A    between atoms: CB_915  and  CG1_916
REMARK  527  A    between atoms: CB_915  and  CG2_917
REMARK  528  A    between atoms: CG1_916  and  CD1_918
REMARK  529  A    between atoms: N_919  and  CA_920
REMARK  530  A    between atoms: CA_920  and  C_921
REMARK  531  A    between atoms: CA_920  and  CB_923
REMARK  532  A    between atoms: CB_923  and  OG1_924
REMARK  533  A    between atoms: CB_923  and  CG2_925
REMARK  534  A    between atoms: N_926  and  CA_927
REMARK  535  A    between atoms: CA_927  and  C_928
REMARK  536  A    between atoms: CA_927  and  CB_930
REMARK  537  A    between atoms: CB_930  and  CG_931
REMARK  538  A    between atoms: CG_931  and  CD_932
REMARK  539  A    between atoms: N_935  and  CA_936
REMARK  540  A    between atoms: CA_936  and  C_937
REMARK  541  A    between atoms: CA_936  and  CB_939
REMARK  542  A    between atoms: CB_939  and  CG_940
REMARK  543  A    between atoms: CG_940  and  CD2_941
REMARK  544  A    between atoms: CG_940  and  CD1_942
REMARK  545  A    between atoms: N_943  and  CA_944
REMARK  546  A    between atoms: CA_944  and  C_945
REMARK  547  A    between atoms: CA_944  and  CB_947
REMARK  548  A    between atoms: N_948  and  CA_949
REMARK  549  A    between atoms: CA_949  and  C_950
REMARK  550  A    between atoms: CA_949  and  CB_952
REMARK  551  A    between atoms: CB_952  and  CG_953
REMARK  552  A    between atoms: N_956  and  CA_957
REMARK  553  A    between atoms: CA_957  and  C_958
REMARK  554  A    between atoms: CA_957  and  CB_960
REMARK  555  A    between atoms: N_961  and  CA_962
REMARK  556  A    between atoms: CA_962  and  C_963
REMARK  557  A    between atoms: CA_962  and  CB_965
REMARK  558  A    between atoms: CB_965  and  CG_966
REMARK  559  A    between atoms: CG_966  and  CD2_967
REMARK  560  A    between atoms: CG_966  and  CD1_968
REMARK  561  A    between atoms: N_969  and  CA_970
REMARK  562  A    between atoms: CA_970  and  C_971
REMARK  563  A    between atoms: CA_970  and  CB_973
REMARK  564  A    between atoms: CB_973  and  OG_974
REMARK  565  A    between atoms: N_975  and  CA_976
REMARK  566  A    between atoms: CA_976  and  C_977
REMARK  567  A    between atoms: CA_976  and  CB_979
REMARK  568  A    between atoms: CB_979  and  CG_980
REMARK  569  A    between atoms: CZ_985  and  OH_986
REMARK  570  A    between atoms: N_987  and  CA_988
REMARK  571  A    between atoms: CA_988  and  C_989
REMARK  572  A    between atoms: CA_988  and  CB_991
REMARK  573  A    between atoms: CB_991  and  SG_992
REMARK  574  A    between atoms: N_993  and  CA_994
REMARK  575  A    between atoms: CA_994  and  C_995
REMARK  576  A    between atoms: CA_994  and  CB_997
REMARK  577  A    between atoms: CB_997  and  CG_998
REMARK  578  A    between atoms: N_1003  and  C_1004
REMARK  579  A    between atoms: C_1004  and  C_1005
REMARK  580  A    between atoms: C_1004  and  C_1007
REMARK  581  A    between atoms: C_1007  and  O_1008
REMARK  582  A    between atoms: N_1009  and  C_1010
REMARK  583  A    between atoms: C_1010  and  C_1011
REMARK  584  A    between atoms: C_1010  and  C_1013
REMARK  585  A    between atoms: C_1013  and  C_1014
REMARK  586  A    between atoms: C_1014  and  C_1015
REMARK  587  A    between atoms: C_1015  and  C_1016
REMARK  588  A    between atoms: C_1016  and  N_1017
REMARK  589  A    between atoms: N_1018  and  C_1019
REMARK  590  A    between atoms: C_1020  and  C_1021
REMARK  591  A    between atoms: C_1020  and  C_1024
REMARK  592  A    between atoms: C_1023  and  C_1026
REMARK  593  A    between atoms: C_1025  and  C_1026
REMARK  594  A    between atoms: C_1027  and  N_1029
REMARK  595  A    between atoms: C_1028  and  N_1030
REMARK  596  A    between atoms: N_1037  and  C_1038
REMARK  597  A    between atoms: C_1038  and  C_1039
REMARK  598  A    between atoms: C_1038  and  C_1041
REMARK  599  A    between atoms: C_1041  and  C_1042
REMARK  600  A    between atoms: C_1041  and  C_1043
REMARK  601  A    between atoms: N_1044  and  C_1045
REMARK  602  A    between atoms: C_1045  and  C_1046
REMARK  603  A    between atoms: C_1045  and  C_1048
REMARK  604  A    between atoms: C_1048  and  C_1049
REMARK  605  A    between atoms: C_1048  and  C_1050
REMARK  606  A    between atoms: C_1049  and  C_1051
REMARK  607  A    between atoms: N_1052  and  C_1053
REMARK  608  A    between atoms: C_1053  and  C_1054
REMARK  609  A    between atoms: C_1053  and  C_1056
REMARK  610  A    between atoms: C_1056  and  C_1057
REMARK  611  A    between atoms: N_1062  and  C_1063
REMARK  612  A    between atoms: C_1063  and  C_1064
REMARK  613  A    between atoms: C_1063  and  C_1066
REMARK  614  A    between atoms: C_1066  and  C_1067
REMARK  615  A    between atoms: C_1067  and  C_1068
REMARK  616  A    between atoms: C_1068  and  N_1069
REMARK  617  A    between atoms: N_1073  and  C_1074
REMARK  618  A    between atoms: C_1074  and  C_1077
REMARK  619  A    between atoms: C_1077  and  C_1078
REMARK  620  A    between atoms: N_1081  and  C_1084
REMARK  621  A    between atoms: C_1083  and  C_1085
REMARK  622  A    between atoms: C_1085  and  C_1086
REMARK  623  A    between atoms: C_1085  and  O_1087
REMARK  624  A    between atoms: C_1085  and  N_1097
REMARK  625  A    between atoms: C_1089  and  C_1094
REMARK  626  A    between atoms: C_1090  and  C_1091
REMARK  627  A    between atoms: C_1093  and  C_1094
REMARK  628  A    between atoms: C_1098  and  C_1099
REMARK  629  A    between atoms: C_1098  and  C_1101
REMARK  630  A    between atoms: C_1101  and  C_1102
REMARK  631  A    between atoms: C_1102  and  C_1103
REMARK  632  A    between atoms: C_1103  and  C_1104
REMARK  633  A    between atoms: C_1104  and  N_1105
REMARK  634  A    between atoms: C_1107  and  C_1108
REMARK  635  A    between atoms: N_1113  and  CA_1114
REMARK  636  A    between atoms: CA_1114  and  C_1115
REMARK  637  A    between atoms: CA_1114  and  CB_1117
REMARK  638  A    between atoms: CB_1117  and  CG_1118
REMARK  639  A    between atoms: CG_1118  and  CD_1119
REMARK  640  A    between atoms: N_1122  and  CA_1123
REMARK  641  A    between atoms: CA_1123  and  C_1124
REMARK  642  A    between atoms: CA_1123  and  CB_1126
REMARK  643  A    between atoms: CB_1126  and  CG_1127
REMARK  644  A    between atoms: N_1130  and  CA_1131
REMARK  645  A    between atoms: CA_1131  and  C_1132
REMARK  646  A    between atoms: CA_1131  and  CB_1134
REMARK  647  A    between atoms: CB_1134  and  CG_1135
REMARK  648  A    between atoms: CG_1135  and  CD2_1136
REMARK  649  A    between atoms: CG_1135  and  CD1_1137
REMARK  650  A    between atoms: N_1138  and  CA_1139
REMARK  651  A    between atoms: CA_1139  and  C_1140
REMARK  652  A    between atoms: CA_1139  and  CB_1142
REMARK  653  A    between atoms: CB_1142  and  CG_1143
REMARK  654  A    between atoms: CG_1143  and  CD1_1144
REMARK  655  A    between atoms: CG_1143  and  CD2_1145
REMARK  656  A    between atoms: N_1146  and  CA_1147
REMARK  657  A    between atoms: CA_1147  and  C_1148
REMARK  658  A    between atoms: CA_1147  and  CB_1150
REMARK  659  A    between atoms: CB_1150  and  CG_1151
REMARK  660  A    between atoms: CG_1151  and  CD2_1152
REMARK  661  A    between atoms: CG_1151  and  CD1_1153
REMARK  662  A    between atoms: N_1154  and  CA_1155
REMARK  663  A    between atoms: CA_1155  and  C_1156
REMARK  664  A    between atoms: N_1158  and  CA_1159
REMARK  665  A    between atoms: CA_1159  and  C_1160
REMARK  666  A    between atoms: CA_1159  and  CB_1162
REMARK  667  A    between atoms: CB_1162  and  OG_1163
REMARK  668  A    between atoms: N_1164  and  CA_1165
REMARK  669  A    between atoms: CA_1165  and  C_1166
REMARK  670  A    between atoms: CA_1165  and  CB_1168
REMARK  671  A    between atoms: N_1169  and  CA_1170
REMARK  672  A    between atoms: CA_1170  and  C_1171
REMARK  673  A    between atoms: N_1173  and  CA_1174
REMARK  674  A    between atoms: CA_1174  and  C_1175
REMARK  675  A    between atoms: CA_1174  and  CB_1177
REMARK  676  A    between atoms: CB_1177  and  CG_1178
REMARK  677  A    between atoms: CG_1178  and  CD_1179
REMARK  678  A    between atoms: N_1182  and  CA_1183
REMARK  679  A    between atoms: CA_1183  and  C_1184
REMARK  680  A    between atoms: CA_1183  and  CB_1186
REMARK  681  A    between atoms: CB_1186  and  CG_1187
REMARK  682  A    between atoms: CG_1187  and  CD2_1188
REMARK  683  A    between atoms: CG_1187  and  CD1_1189
REMARK  684  A    between atoms: N_1190  and  CA_1191
REMARK  685  A    between atoms: CA_1191  and  C_1192
REMARK  686  A    between atoms: CA_1191  and  CB_1194
REMARK  687  A    between atoms: CB_1194  and  CG_1195
REMARK  688  A    between atoms: CG_1195  and  CD_1196
REMARK  689  A    between atoms: CD_1196  and  CE_1197
REMARK  690  A    between atoms: CE_1197  and  NZ_1198
REMARK  691  A    between atoms: N_1199  and  CA_1200
REMARK  692  A    between atoms: CA_1200  and  C_1201
REMARK  693  A    between atoms: CA_1200  and  CB_1203
REMARK  694  A    between atoms: CB_1203  and  CG1_1204
REMARK  695  A    between atoms: CB_1203  and  CG2_1205
REMARK  696  A    between atoms: CG1_1204  and  CD1_1206
REMARK  697  A    between atoms: N_1207  and  CA_1208
REMARK  698  A    between atoms: CA_1208  and  C_1209
REMARK  699  A    between atoms: CA_1208  and  CB_1211
REMARK  700  A    between atoms: N_1212  and  CA_1213
REMARK  701  A    between atoms: CA_1213  and  C_1214
REMARK  702  A    between atoms: CA_1213  and  CB_1216
REMARK  703  A    between atoms: CB_1216  and  CG_1217
REMARK  704  A    between atoms: N_1220  and  CA_1221
REMARK  705  A    between atoms: CA_1221  and  C_1222
REMARK  706  A    between atoms: CA_1221  and  CB_1224
REMARK  707  A    between atoms: CB_1224  and  CG_1225
REMARK  708  A    between atoms: N_1231  and  CA_1232
REMARK  709  A    between atoms: CA_1232  and  C_1233
REMARK  710  A    between atoms: N_1235  and  CA_1236
REMARK  711  A    between atoms: CA_1236  and  C_1237
REMARK  712  A    between atoms: CA_1236  and  CB_1239
REMARK  713  A    between atoms: CB_1239  and  CG_1240
REMARK  714  A    between atoms: N_1249  and  CA_1250
REMARK  715  A    between atoms: CA_1250  and  C_1251
REMARK  716  A    between atoms: CA_1250  and  CB_1253
REMARK  717  A    between atoms: CB_1253  and  OG_1254
REMARK  718  A    between atoms: N_1255  and  CA_1256
REMARK  719  A    between atoms: CA_1256  and  C_1257
REMARK  720  A    between atoms: CA_1256  and  CB_1259
REMARK  721  A    between atoms: CB_1259  and  CG2_1260
REMARK  722  A    between atoms: CB_1259  and  CG1_1261
REMARK  723  A    between atoms: N_1262  and  CA_1263
REMARK  724  A    between atoms: CA_1263  and  C_1264
REMARK  725  A    between atoms: CA_1263  and  CB_1266
REMARK  726  A    between atoms: CB_1266  and  CG_1267
REMARK  727  A    between atoms: N_1272  and  CA_1273
REMARK  728  A    between atoms: CA_1273  and  C_1274
REMARK  729  A    between atoms: CA_1273  and  CB_1276
REMARK  730  A    between atoms: CA_1278  and  C_1279
REMARK  731  A    between atoms: N_1284  and  CA_1285
REMARK  732  A    between atoms: CA_1285  and  C_1286
REMARK  733  A    between atoms: CA_1285  and  CB_1288
REMARK  734  A    between atoms: CB_1288  and  OG_1289
REMARK  735  A    between atoms: N_1290  and  CA_1291
REMARK  736  A    between atoms: CA_1291  and  C_1292
REMARK  737  A    between atoms: CA_1291  and  CB_1294
REMARK  738  A    between atoms: CB_1294  and  OG_1295
REMARK  739  A    between atoms: N_1296  and  C_1297
REMARK  740  A    between atoms: C_1297  and  C_1298
REMARK  741  A    between atoms: C_1297  and  C_1300
REMARK  742  A    between atoms: C_1300  and  C_1301
REMARK  743  A    between atoms: C_1301  and  C_1302
REMARK  744  A    between atoms: N_1303  and  CA_1304
REMARK  745  A    between atoms: CA_1304  and  C_1305
REMARK  746  A    between atoms: CA_1304  and  CB_1307
REMARK  747  A    between atoms: CB_1307  and  CG_1308
REMARK  748  A    between atoms: CG_1308  and  CD_1309
REMARK  749  A    between atoms: CD_1309  and  NE_1310
REMARK  750  A    between atoms: N_1314  and  CA_1315
REMARK  751  A    between atoms: CA_1315  and  C_1316
REMARK  752  A    between atoms: CA_1315  and  CB_1318
REMARK  753  A    between atoms: CB_1318  and  OG1_1319
REMARK  754  A    between atoms: CB_1318  and  CG2_1320
REMARK  755  A    between atoms: N_1321  and  C_1322
REMARK  756  A    between atoms: C_1322  and  C_1323
REMARK  757  A    between atoms: C_1322  and  C_1325
REMARK  758  A    between atoms: C_1325  and  C_1326
REMARK  759  A    between atoms: C_1326  and  C_1327
REMARK  760  A    between atoms: C_1326  and  C_1328
REMARK  761  A    between atoms: N_1329  and  C_1330
REMARK  762  A    between atoms: C_1330  and  C_1331
REMARK  763  A    between atoms: C_1330  and  C_1333
REMARK  764  A    between atoms: N_1334  and  C_1335
REMARK  765  A    between atoms: C_1335  and  C_1336
REMARK  766  A    between atoms: N_1338  and  C_1339
REMARK  767  A    between atoms: C_1339  and  C_1340
REMARK  768  A    between atoms: C_1339  and  C_1342
REMARK  769  A    between atoms: C_1342  and  O_1343
REMARK  770  A    between atoms: C_1342  and  C_1344
REMARK  771  A    between atoms: N_1345  and  C_1346
REMARK  772  A    between atoms: C_1346  and  C_1347
REMARK  773  A    between atoms: C_1346  and  C_1349
REMARK  774  A    between atoms: C_1349  and  C_1350
REMARK  775  A    between atoms: C_1350  and  C_1351
REMARK  776  A    between atoms: C_1350  and  C_1352
REMARK  777  A    between atoms: N_1353  and  C_1354
REMARK  778  A    between atoms: C_1354  and  C_1355
REMARK  779  A    between atoms: C_1354  and  C_1357
REMARK  780  A    between atoms: C_1357  and  C_1358
REMARK  781  A    between atoms: N_1361  and  C_1362
REMARK  782  A    between atoms: C_1362  and  C_1363
REMARK  783  A    between atoms: C_1362  and  C_1365
REMARK  784  A    between atoms: C_1365  and  C_1366
REMARK  785  A    between atoms: C_1371  and  O_1372
REMARK  786  A    between atoms: N_1373  and  C_1374
REMARK  787  A    between atoms: C_1374  and  C_1375
REMARK  788  A    between atoms: C_1374  and  C_1377
REMARK  789  A    between atoms: C_1377  and  C_1378
REMARK  790  A    between atoms: C_1378  and  C_1379
REMARK  791  A    between atoms: C_1378  and  C_1380
REMARK  792  A    between atoms: C_1382  and  C_1383
REMARK  793  A    between atoms: C_1389  and  C_1390
REMARK  794  A    between atoms: N_1395  and  C_1396
REMARK  795  A    between atoms: C_1396  and  C_1399
REMARK  796  A    between atoms: C_1399  and  C_1400
REMARK  797  A    between atoms: C_1400  and  C_1401
REMARK  798  A    between atoms: N_1405  and  C_1406
REMARK  799  A    between atoms: C_1407  and  C_1412
REMARK  800  A    between atoms: C_1408  and  O_1410
REMARK  801  A    between atoms: C_1409  and  O_1411
REMARK  802  A    between atoms: O_1410  and  O_1411
REMARK  803  A    between atoms: C_1412  and  C_1414
REMARK  804  A    between atoms: C_1413  and  C_1415
REMARK  805  A    between atoms: S_1416  and  C_1418
REMARK  806  A    between atoms: S_1417  and  C_1419
REMARK  807  A    between atoms: C_1418  and  C_1419
REMARK  808  A    between atoms: N_1420  and  CA_1421
REMARK  809  A    between atoms: CA_1421  and  C_1422
REMARK  810  A    between atoms: CA_1421  and  CB_1424
REMARK  811  A    between atoms: CB_1424  and  CG1_1425
REMARK  812  A    between atoms: CB_1424  and  CG2_1426
REMARK  813  A    between atoms: CG1_1425  and  CD1_1427
REMARK  814  A    between atoms: N_1428  and  CA_1429
REMARK  815  A    between atoms: CA_1429  and  C_1430
REMARK  816  A    between atoms: CA_1429  and  CB_1432
REMARK  817  A    between atoms: CB_1432  and  CG_1433
REMARK  818  A    between atoms: CG_1433  and  CD_1434
REMARK  819  A    between atoms: N_1437  and  CA_1438
REMARK  820  A    between atoms: CA_1438  and  C_1439
REMARK  821  A    between atoms: N_1441  and  CA_1442
REMARK  822  A    between atoms: CA_1442  and  C_1443
REMARK  823  A    between atoms: CA_1442  and  CB_1445
REMARK  824  A    between atoms: CB_1445  and  CG_1446
REMARK  825  A    between atoms: CG_1446  and  CD_1447
REMARK  826  A    between atoms: CD_1447  and  NE_1448
REMARK  827  A    between atoms: N_1452  and  C_1453
REMARK  828  A    between atoms: C_1453  and  C_1454
REMARK  829  A    between atoms: C_1453  and  C_1456
REMARK  830  A    between atoms: C_1456  and  C_1457
REMARK  831  A    between atoms: C_1457  and  S_1458
REMARK  832  A    between atoms: N_1459  and  CA_1460
REMARK  833  A    between atoms: CA_1460  and  C_1461
REMARK  834  A    between atoms: CA_1460  and  CB_1463
REMARK  835  A    between atoms: CB_1463  and  CG_1464
REMARK  836  A    between atoms: N_1469  and  CA_1470
REMARK  837  A    between atoms: CA_1470  and  C_1471
REMARK  838  A    between atoms: CA_1470  and  CB_1473
REMARK  839  A    between atoms: CB_1473  and  CG_1474
REMARK  840  A    between atoms: N_1477  and  CA_1478
REMARK  841  A    between atoms: CA_1478  and  C_1479
REMARK  842  A    between atoms: CA_1478  and  CB_1481
REMARK  843  A    between atoms: CB_1481  and  CG_1482
REMARK  844  A    between atoms: CG_1482  and  CD_1483
REMARK  845  A    between atoms: N_1486  and  CA_1487
REMARK  846  A    between atoms: CA_1487  and  C_1488
REMARK  847  A    between atoms: CA_1487  and  CB_1490
REMARK  848  A    between atoms: CB_1490  and  CG_1491
REMARK  849  A    between atoms: CG_1491  and  CD_1492
REMARK  850  A    between atoms: CD_1492  and  CE_1493
REMARK  851  A    between atoms: CE_1493  and  NZ_1494
REMARK  852  A    between atoms: N_1495  and  CA_1496
REMARK  853  A    between atoms: CA_1496  and  C_1497
REMARK  854  A    between atoms: CA_1496  and  CB_1499
REMARK  855  A    between atoms: CB_1499  and  CG2_1500
REMARK  856  A    between atoms: CB_1499  and  CG1_1501
REMARK  857  A    between atoms: N_1502  and  CA_1503
REMARK  858  A    between atoms: CA_1503  and  C_1504
REMARK  859  A    between atoms: CA_1503  and  CB_1506
REMARK  860  A    between atoms: CB_1506  and  CG_1507
REMARK  861  A    between atoms: N_1510  and  CA_1511
REMARK  862  A    between atoms: CA_1511  and  C_1512
REMARK  863  A    between atoms: CA_1511  and  CB_1514
REMARK  864  A    between atoms: CB_1514  and  CG_1515
REMARK  865  A    between atoms: CG_1515  and  CD2_1516
REMARK  866  A    between atoms: CG_1515  and  CD1_1517
REMARK  867  A    between atoms: N_1518  and  CA_1519
REMARK  868  A    between atoms: CA_1519  and  C_1520
REMARK  869  A    between atoms: CA_1519  and  CB_1522
REMARK  870  A    between atoms: CB_1522  and  CG_1523
REMARK  871  A    between atoms: N_1532  and  CA_1533
REMARK  872  A    between atoms: CA_1533  and  C_1534
REMARK  873  A    between atoms: CA_1533  and  CB_1536
REMARK  874  A    between atoms: CB_1536  and  OG_1537
REMARK  875  A    between atoms: N_1538  and  CA_1539
REMARK  876  A    between atoms: CA_1539  and  C_1540
REMARK  877  A    between atoms: CA_1539  and  CB_1542
REMARK  878  A    between atoms: CB_1542  and  CG_1543
REMARK  879  A    between atoms: CG_1543  and  CD2_1544
REMARK  880  A    between atoms: CG_1543  and  CD1_1545
REMARK  881  A    between atoms: N_1546  and  CA_1547
REMARK  882  A    between atoms: CA_1547  and  C_1548
REMARK  883  A    between atoms: N_1550  and  CA_1551
REMARK  884  A    between atoms: CA_1551  and  C_1552
REMARK  885  A    between atoms: CA_1551  and  CB_1554
REMARK  886  A    between atoms: CB_1554  and  CG2_1555
REMARK  887  A    between atoms: CB_1554  and  CG1_1556
REMARK  888  A    between atoms: N_1557  and  CA_1558
REMARK  889  A    between atoms: CA_1558  and  C_1559
REMARK  890  A    between atoms: CA_1558  and  CB_1561
REMARK  891  A    between atoms: CB_1561  and  CG_1562
REMARK  892  A    between atoms: CG_1562  and  CD1_1563
REMARK  893  A    between atoms: CG_1562  and  CD2_1564
REMARK  894  A    between atoms: N_1565  and  CA_1566
REMARK  895  A    between atoms: CA_1566  and  C_1567
REMARK  896  A    between atoms: CA_1566  and  CB_1569
REMARK  897  A    between atoms: CB_1569  and  SG_1570
REMARK  898  A    between atoms: N_1571  and  CA_1572
REMARK  899  A    between atoms: CA_1572  and  C_1573
REMARK  900  A    between atoms: CA_1572  and  CB_1575
REMARK  901  A    between atoms: CB_1575  and  CG_1576
REMARK  902  A    between atoms: CZ_1581  and  OH_1582
REMARK  903  A    between atoms: N_1583  and  CA_1584
REMARK  904  A    between atoms: CA_1584  and  C_1585
REMARK  905  A    between atoms: CA_1584  and  CB_1587
REMARK  906  A    between atoms: CB_1587  and  CG_1588
REMARK  907  A    between atoms: CG_1588  and  CD_1589
REMARK  908  A    between atoms: N_1592  and  CA_1593
REMARK  909  A    between atoms: CA_1593  and  C_1594
REMARK  910  A    between atoms: CA_1593  and  CB_1596
REMARK  911  A    between atoms: CB_1596  and  CG_1597
REMARK  912  A    between atoms: N_1603  and  CA_1604
REMARK  913  A    between atoms: CA_1604  and  C_1605
REMARK  914  A    between atoms: CA_1604  and  CB_1607
REMARK  915  A    between atoms: CB_1607  and  CG_1608
REMARK  916  A    between atoms: CG_1608  and  CD1_1609
REMARK  917  A    between atoms: CG_1608  and  CD2_1610
REMARK  918  A    between atoms: N_1611  and  CA_1612
REMARK  919  A    between atoms: CA_1612  and  C_1613
REMARK  920  A    between atoms: CA_1612  and  CB_1615
REMARK  921  A    between atoms: CB_1615  and  CG2_1616
REMARK  922  A    between atoms: CB_1615  and  CG1_1617
REMARK  923  A    between atoms: N_1618  and  CA_1619
REMARK  924  A    between atoms: CA_1619  and  C_1620
REMARK  925  A    between atoms: N_1622  and  C_1623
REMARK  926  A    between atoms: C_1623  and  C_1624
REMARK  927  A    between atoms: C_1623  and  C_1626
REMARK  928  A    between atoms: C_1626  and  C_1627
REMARK  929  A    between atoms: C_1627  and  C_1628
REMARK  930  A    between atoms: CA_1630  and  C_1631
REMARK  931  A    between atoms: CA_1637  and  C_1638
REMARK  932  A    between atoms: N_1643  and  CA_1644
REMARK  933  A    between atoms: CA_1644  and  C_1645
REMARK  934  A    between atoms: CA_1644  and  CB_1647
REMARK  935  A    between atoms: CB_1647  and  CG_1648
REMARK  936  A    between atoms: N_1654  and  CA_1655
REMARK  937  A    between atoms: CA_1655  and  C_1656
REMARK  938  A    between atoms: CA_1655  and  CB_1658
REMARK  939  A    between atoms: CB_1658  and  CG_1659
REMARK  940  A    between atoms: CG_1659  and  CD_1660
REMARK  941  A    between atoms: N_1663  and  CA_1664
REMARK  942  A    between atoms: CA_1664  and  C_1665
REMARK  943  A    between atoms: CA_1664  and  CB_1667
REMARK  944  A    between atoms: N_1668  and  CA_1669
REMARK  945  A    between atoms: CA_1669  and  C_1670
REMARK  946  A    between atoms: CA_1669  and  CB_1672
REMARK  947  A    between atoms: CB_1672  and  CG_1673
REMARK  948  A    between atoms: N_1676  and  CA_1677
REMARK  949  A    between atoms: CA_1677  and  C_1678
REMARK  950  A    between atoms: CA_1677  and  CB_1680
REMARK  951  A    between atoms: CB_1680  and  OG1_1681
REMARK  952  A    between atoms: CB_1680  and  CG2_1682
REMARK  953  A    between atoms: N_1683  and  CA_1684
REMARK  954  A    between atoms: CA_1684  and  C_1685
REMARK  955  A    between atoms: CA_1684  and  CB_1687
REMARK  956  A    between atoms: CB_1687  and  CG_1688
REMARK  957  A    between atoms: CZ_1693  and  OH_1694
REMARK  958  A    between atoms: N_1695  and  CA_1696
REMARK  959  A    between atoms: CA_1696  and  C_1697
REMARK  960  A    between atoms: CA_1696  and  CB_1699
REMARK  961  A    between atoms: CB_1699  and  CG_1700
REMARK  962  A    between atoms: CG_1700  and  CD_1701
REMARK  963  A    between atoms: N_1704  and  CA_1705
REMARK  964  A    between atoms: CA_1705  and  C_1706
REMARK  965  A    between atoms: CA_1705  and  CB_1708
REMARK  966  A    between atoms: CB_1708  and  CG_1709
REMARK  967  A    between atoms: CG_1709  and  CD_1710
REMARK  968  A    between atoms: N_1713  and  CA_1714
REMARK  969  A    between atoms: CA_1714  and  C_1715
REMARK  970  A    between atoms: CA_1714  and  CB_1717
REMARK  971  A    between atoms: CB_1717  and  OG1_1718
REMARK  972  A    between atoms: CB_1717  and  CG2_1719
REMARK  973  A    between atoms: N_1720  and  CA_1721
REMARK  974  A    between atoms: CA_1721  and  C_1722
REMARK  975  A    between atoms: CA_1721  and  CB_1724
REMARK  976  A    between atoms: CB_1724  and  CG_1725
REMARK  977  A    between atoms: CZ_1730  and  OH_1731
REMARK  978  A    between atoms: N_1732  and  CA_1733
REMARK  979  A    between atoms: CA_1733  and  C_1734
REMARK  980  A    between atoms: CA_1733  and  CB_1736
REMARK  981  A    between atoms: CB_1736  and  SG_1737
REMARK  982  A    between atoms: N_1738  and  C_1739
REMARK  983  A    between atoms: C_1739  and  C_1740
REMARK  984  A    between atoms: C_1739  and  C_1742
REMARK  985  A    between atoms: C_1742  and  C_1743
REMARK  986  A    between atoms: C_1743  and  C_1744
REMARK  987  A    between atoms: C_1744  and  N_1745
REMARK  988  A    between atoms: N_1746  and  CA_1747
REMARK  989  A    between atoms: CA_1747  and  C_1748
REMARK  990  A    between atoms: CA_1747  and  CB_1750
REMARK  991  A    between atoms: CB_1750  and  CG1_1751
REMARK  992  A    between atoms: CB_1750  and  CG2_1752
REMARK  993  A    between atoms: CG1_1751  and  CD1_1753
REMARK  994  A    between atoms: N_1754  and  C_1755
REMARK  995  A    between atoms: C_1755  and  C_1756
REMARK  996  A    between atoms: C_1755  and  C_1758
REMARK  997  A    between atoms: C_1758  and  O_1759
REMARK  998  A    between atoms: N_1760  and  C_1761
REMARK  999  A    between atoms: C_1761  and  C_1762
REMARK  1000  A    between atoms: C_1761  and  C_1764
REMARK  1001  A    between atoms: C_1764  and  C_1765
REMARK  1002  A    between atoms: C_1765  and  C_1766
REMARK  1003  A    between atoms: C_1766  and  N_1767
REMARK  1004  A    between atoms: N_1771  and  C_1772
REMARK  1005  A    between atoms: C_1772  and  C_1773
REMARK  1006  A    between atoms: C_1772  and  C_1775
REMARK  1007  A    between atoms: C_1775  and  C_1776
REMARK  1008  A    between atoms: C_1775  and  C_1777
REMARK  1009  A    between atoms: N_1778  and  C_1779
REMARK  1010  A    between atoms: C_1779  and  C_1780
REMARK  1011  A    between atoms: C_1779  and  C_1782
REMARK  1012  A    between atoms: C_1782  and  C_1783
REMARK  1013  A    between atoms: C_1783  and  C_1784
REMARK  1014  A    between atoms: N_1787  and  C_1788
REMARK  1015  A    between atoms: C_1788  and  C_1789
REMARK  1016  A    between atoms: C_1788  and  C_1791
REMARK  1017  A    between atoms: C_1791  and  C_1792
REMARK  1018  A    between atoms: N_1798  and  C_1799
REMARK  1019  A    between atoms: C_1799  and  C_1800
REMARK  1020  A    between atoms: C_1799  and  C_1802
REMARK  1021  A    between atoms: C_1802  and  O_1803
REMARK  1022  A    between atoms: C_1802  and  C_1804
REMARK  1023  A    between atoms: N_1805  and  C_1806
REMARK  1024  A    between atoms: C_1806  and  C_1807
REMARK  1025  A    between atoms: C_1806  and  C_1809
REMARK  1026  A    between atoms: C_1809  and  C_1810
REMARK  1027  A    between atoms: C_1817  and  C_1818
REMARK  1028  A    between atoms: N_1823  and  C_1824
REMARK  1029  A    between atoms: C_1824  and  C_1825
REMARK  1030  A    between atoms: C_1824  and  C_1827
REMARK  1031  A    between atoms: C_1827  and  C_1828
REMARK  1032  A    between atoms: N_1831  and  C_1832
REMARK  1033  A    between atoms: C_1832  and  C_1833
REMARK  1034  A    between atoms: C_1832  and  C_1835
REMARK  1035  A    between atoms: C_1835  and  C_1836
REMARK  1036  A    between atoms: N_1842  and  C_1843
REMARK  1037  A    between atoms: C_1843  and  C_1844
REMARK  1038  A    between atoms: C_1843  and  C_1846
REMARK  1039  A    between atoms: C_1846  and  C_1847
REMARK  1040  A    between atoms: C_1846  and  C_1848
REMARK  1041  A    between atoms: N_1849  and  C_1850
REMARK  1042  A    between atoms: C_1850  and  C_1851
REMARK  1043  A    between atoms: C_1850  and  C_1853
REMARK  1044  A    between atoms: C_1853  and  O_1854
REMARK  1045  A    between atoms: C_1853  and  C_1855
REMARK  1046  A    between atoms: N_1856  and  C_1857
REMARK  1047  A    between atoms: C_1858  and  C_1859
REMARK  1048  A    between atoms: C_1858  and  C_1861
REMARK  1049  A    between atoms: C_1862  and  C_1863
REMARK  1050  A    between atoms: C_1862  and  C_1864
REMARK  1051  A    between atoms: C_1863  and  C_1865
REMARK  1052  A    between atoms: N_1871  and  C_1872
REMARK  1053  A    between atoms: C_1872  and  C_1873
REMARK  1054  A    between atoms: N_1875  and  CA_1876
REMARK  1055  A    between atoms: CA_1876  and  C_1877
REMARK  1056  A    between atoms: CA_1876  and  CB_1879
REMARK  1057  A    between atoms: N_1880  and  CA_1881
REMARK  1058  A    between atoms: CA_1881  and  C_1882
REMARK  1059  A    between atoms: CA_1881  and  CB_1884
REMARK  1060  A    between atoms: CB_1884  and  CG_1885
REMARK  1061  A    between atoms: CG_1885  and  CD_1886
REMARK  1062  A    between atoms: CD_1886  and  NE_1887
REMARK  1063  A    between atoms: N_1891  and  CA_1892
REMARK  1064  A    between atoms: CA_1892  and  C_1893
REMARK  1065  A    between atoms: CA_1892  and  CB_1895
REMARK  1066  A    between atoms: CB_1895  and  CG_1896
REMARK  1067  A    between atoms: N_1899  and  CA_1900
REMARK  1068  A    between atoms: CA_1900  and  C_1901
REMARK  1069  A    between atoms: CA_1900  and  CB_1903
REMARK  1070  A    between atoms: CB_1903  and  CG_1904
REMARK  1071  A    between atoms: CG_1904  and  CD1_1905
REMARK  1072  A    between atoms: CG_1904  and  CD2_1906
REMARK  1073  A    between atoms: N_1907  and  CA_1908
REMARK  1074  A    between atoms: CA_1908  and  C_1909
REMARK  1075  A    between atoms: CA_1908  and  CB_1911
REMARK  1076  A    between atoms: CB_1911  and  CG1_1912
REMARK  1077  A    between atoms: CB_1911  and  CG2_1913
REMARK  1078  A    between atoms: CG1_1912  and  CD1_1914
REMARK  1079  A    between atoms: N_1915  and  CA_1916
REMARK  1080  A    between atoms: CA_1916  and  C_1917
REMARK  1081  A    between atoms: CA_1916  and  CB_1919
REMARK  1082  A    between atoms: CB_1919  and  OG_1920
REMARK  1083  A    between atoms: N_1921  and  CA_1922
REMARK  1084  A    between atoms: CA_1922  and  C_1923
REMARK  1085  A    between atoms: CA_1922  and  CB_1925
REMARK  1086  A    between atoms: CB_1925  and  CG_1926
REMARK  1087  A    between atoms: CG_1926  and  CD_1927
REMARK  1088  A    between atoms: CD_1927  and  NE_1928
REMARK  1089  A    between atoms: N_1932  and  CA_1933
REMARK  1090  A    between atoms: CA_1933  and  C_1934
REMARK  1091  A    between atoms: CA_1933  and  CB_1936
REMARK  1092  A    between atoms: CB_1936  and  CG_1937
REMARK  1093  A    between atoms: CG_1937  and  CD2_1938
REMARK  1094  A    between atoms: CG_1937  and  CD1_1939
REMARK  1095  A    between atoms: N_1940  and  CA_1941
REMARK  1096  A    between atoms: CA_1941  and  C_1942
REMARK  1097  A    between atoms: CA_1941  and  CB_1944
REMARK  1098  A    between atoms: CB_1944  and  CG_1945
REMARK  1099  A    between atoms: CG_1945  and  CD2_1946
REMARK  1100  A    between atoms: CG_1945  and  CD1_1947
REMARK  1101  A    between atoms: N_1948  and  CA_1949
REMARK  1102  A    between atoms: CA_1949  and  C_1950
REMARK  1103  A    between atoms: CA_1949  and  CB_1952
REMARK  1104  A    between atoms: CB_1952  and  CG_1953
REMARK  1105  A    between atoms: CG_1953  and  CD_1954
REMARK  1106  A    between atoms: CD_1954  and  CE_1955
REMARK  1107  A    between atoms: CE_1955  and  NZ_1956
REMARK  1108  A    between atoms: N_1957  and  CA_1958
REMARK  1109  A    between atoms: CA_1958  and  C_1959
REMARK  1110  A    between atoms: CA_1958  and  CB_1961
REMARK  1111  A    between atoms: CB_1961  and  CG_1962
REMARK  1112  A    between atoms: N_1967  and  CA_1968
REMARK  1113  A    between atoms: CA_1968  and  C_1969
REMARK  1114  A    between atoms: CA_1968  and  CB_1971
REMARK  1115  A    between atoms: CB_1971  and  CG_1972
REMARK  1116  A    between atoms: CA_1976  and  C_1977
REMARK  1117  A    between atoms: N_1982  and  C_1983
REMARK  1118  A    between atoms: C_1983  and  C_1984
REMARK  1119  A    between atoms: C_1983  and  C_1986
REMARK  1120  A    between atoms: C_1986  and  O_1987
REMARK  1121  A    between atoms: N_1988  and  C_1989
REMARK  1122  A    between atoms: C_1989  and  C_1990
REMARK  1123  A    between atoms: C_1989  and  C_1992
REMARK  1124  A    between atoms: C_1992  and  C_1993
REMARK  1125  A    between atoms: C_1993  and  C_1994
REMARK  1126  A    between atoms: N_1997  and  C_1998
REMARK  1127  A    between atoms: C_1998  and  C_1999
REMARK  1128  A    between atoms: C_1998  and  C_2001
REMARK  1129  A    between atoms: C_2001  and  C_2002
REMARK  1130  A    between atoms: C_2002  and  C_2003
REMARK  1131  A    between atoms: C_2003  and  N_2004
REMARK  1132  A    between atoms: C_2009  and  C_2010
REMARK  1133  A    between atoms: N_2015  and  C_2017
REMARK  1134  A    between atoms: C_2016  and  C_2018
REMARK  1135  A    between atoms: C_2016  and  C_2021
REMARK  1136  A    between atoms: C_2021  and  C_2022
REMARK  1137  A    between atoms: C_2022  and  C_2023
REMARK  1138  A    between atoms: C_2023  and  S_2024
REMARK  1139  A    between atoms: C_2023  and  S_2025
REMARK  1140  A    between atoms: S_2024  and  C_2026
REMARK  1141  A    between atoms: S_2025  and  C_2027
REMARK  1142  A    between atoms: N_2028  and  CA_2029
REMARK  1143  A    between atoms: CA_2029  and  C_2030
REMARK  1144  A    between atoms: CA_2029  and  CB_2032
REMARK  1145  A    between atoms: CB_2032  and  CG_2033
REMARK  1146  A    between atoms: CG_2033  and  CD1_2034
REMARK  1147  A    between atoms: CG_2033  and  CD2_2035
REMARK  1148  A    between atoms: N_2036  and  CA_2037
REMARK  1149  A    between atoms: CA_2037  and  C_2038
REMARK  1150  A    between atoms: CA_2037  and  CB_2040
REMARK  1151  A    between atoms: N_2041  and  CA_2042
REMARK  1152  A    between atoms: CA_2042  and  C_2043
REMARK  1153  A    between atoms: CA_2042  and  CB_2045
REMARK  1154  A    between atoms: CB_2045  and  CG_2046
REMARK  1155  A    between atoms: CG_2046  and  CD_2047
REMARK  1156  A    between atoms: N_2050  and  CA_2051
REMARK  1157  A    between atoms: CA_2051  and  C_2052
REMARK  1158  A    between atoms: CA_2051  and  CB_2054
REMARK  1159  A    between atoms: CB_2054  and  CG2_2055
REMARK  1160  A    between atoms: CB_2054  and  CG1_2056
REMARK  1161  A    between atoms: N_2057  and  CA_2058
REMARK  1162  A    between atoms: CA_2058  and  C_2059
REMARK  1163  A    between atoms: CA_2058  and  CB_2061
REMARK  1164  A    between atoms: CB_2061  and  CG_2062
REMARK  1165  A    between atoms: CG_2062  and  CD1_2063
REMARK  1166  A    between atoms: CG_2062  and  CD2_2064
REMARK  1167  A    between atoms: N_2065  and  CA_2066
REMARK  1168  A    between atoms: CA_2066  and  C_2067
REMARK  1169  A    between atoms: CA_2066  and  CB_2069
REMARK  1170  A    between atoms: CB_2069  and  CG_2070
REMARK  1171  A    between atoms: CG_2070  and  CD_2071
REMARK  1172  A    between atoms: N_2074  and  CA_2075
REMARK  1173  A    between atoms: CA_2075  and  C_2076
REMARK  1174  A    between atoms: CA_2075  and  CB_2078
REMARK  1175  A    between atoms: CB_2078  and  CG_2079
REMARK  1176  A    between atoms: CA_2085  and  C_2086
REMARK  1177  A    between atoms: N_2091  and  CA_2092
REMARK  1178  A    between atoms: CA_2092  and  C_2093
REMARK  1179  A    between atoms: CA_2092  and  CB_2095
REMARK  1180  A    between atoms: CB_2095  and  CG_2096
REMARK  1181  A    between atoms: N_2105  and  CA_2106
REMARK  1182  A    between atoms: CA_2106  and  C_2107
REMARK  1183  A    between atoms: CA_2106  and  CB_2109
REMARK  1184  A    between atoms: CB_2109  and  CG1_2110
REMARK  1185  A    between atoms: CB_2109  and  CG2_2111
REMARK  1186  A    between atoms: CG1_2110  and  CD1_2112
REMARK  1187  A    between atoms: N_2113  and  CA_2114
REMARK  1188  A    between atoms: CA_2114  and  C_2115
REMARK  1189  A    between atoms: CA_2114  and  CB_2117
REMARK  1190  A    between atoms: CB_2117  and  OG1_2118
REMARK  1191  A    between atoms: CB_2117  and  CG2_2119
REMARK  1192  A    between atoms: N_2120  and  CA_2121
REMARK  1193  A    between atoms: CA_2121  and  C_2122
REMARK  1194  A    between atoms: CA_2121  and  CB_2124
REMARK  1195  A    between atoms: N_2125  and  CA_2126
REMARK  1196  A    between atoms: CA_2126  and  C_2127
REMARK  1197  A    between atoms: CA_2126  and  CB_2129
REMARK  1198  A    between atoms: CB_2129  and  CG_2130
REMARK  1199  A    between atoms: N_2133  and  CA_2134
REMARK  1200  A    between atoms: CA_2134  and  C_2135
REMARK  1201  A    between atoms: CA_2134  and  CB_2137
REMARK  1202  A    between atoms: CB_2137  and  OG_2138
REMARK  1203  A    between atoms: N_2139  and  CA_2140
REMARK  1204  A    between atoms: CA_2140  and  C_2141
REMARK  1205  A    between atoms: CA_2140  and  CB_2143
REMARK  1206  A    between atoms: CB_2143  and  OG_2144
REMARK  1207  A    between atoms: N_2145  and  C_2146
REMARK  1208  A    between atoms: C_2146  and  C_2147
REMARK  1209  A    between atoms: C_2146  and  C_2149
REMARK  1210  A    between atoms: C_2149  and  C_2150
REMARK  1211  A    between atoms: N_2151  and  CA_2152
REMARK  1212  A    between atoms: CA_2152  and  C_2153
REMARK  1213  A    between atoms: CA_2152  and  CB_2155
REMARK  1214  A    between atoms: CB_2155  and  OG_2156
REMARK  1215  A    between atoms: N_2157  and  CA_2158
REMARK  1216  A    between atoms: CA_2158  and  C_2159
REMARK  1217  A    between atoms: CA_2158  and  CB_2161
REMARK  1218  A    between atoms: CB_2161  and  CG_2162
REMARK  1219  A    between atoms: CG_2162  and  CD_2163
REMARK  1220  A    between atoms: CA_2167  and  C_2168
REMARK  1221  A    between atoms: CA_2174  and  C_2175
REMARK  1222  A    between atoms: N_2180  and  CA_2181
REMARK  1223  A    between atoms: CA_2181  and  C_2182
REMARK  1224  A    between atoms: CA_2181  and  CB_2184
REMARK  1225  A    between atoms: CB_2184  and  OG_2185
REMARK  1226  A    between atoms: N_2186  and  CA_2187
REMARK  1227  A    between atoms: CA_2187  and  C_2188
REMARK  1228  A    between atoms: CA_2187  and  CB_2190
REMARK  1229  A    between atoms: CB_2190  and  CG_2191
REMARK  1230  A    between atoms: N_2200  and  CA_2201
REMARK  1231  A    between atoms: CA_2201  and  C_2202
REMARK  1232  A    between atoms: CA_2201  and  CB_2204
REMARK  1233  A    between atoms: CB_2204  and  CG2_2205
REMARK  1234  A    between atoms: CB_2204  and  CG1_2206
REMARK  1235  A    between atoms: N_2207  and  CA_2208
REMARK  1236  A    between atoms: CA_2208  and  C_2209
REMARK  1237  A    between atoms: CA_2208  and  CB_2211
REMARK  1238  A    between atoms: CB_2211  and  OG1_2212
REMARK  1239  A    between atoms: CB_2211  and  CG2_2213
REMARK  1240  A    between atoms: N_2214  and  CA_2215
REMARK  1241  A    between atoms: CA_2215  and  C_2216
REMARK  1242  A    between atoms: CA_2215  and  CB_2218
REMARK  1243  A    between atoms: CB_2218  and  CG_2219
REMARK  1244  A    between atoms: CG_2219  and  CD_2220
REMARK  1245  A    between atoms: N_2223  and  CA_2224
REMARK  1246  A    between atoms: CA_2224  and  C_2225
REMARK  1247  A    between atoms: CA_2224  and  CB_2227
REMARK  1248  A    between atoms: CB_2227  and  CG_2228
REMARK  1249  A    between atoms: CG_2228  and  SD_2229
REMARK  1250  A    between atoms: SD_2229  and  CE_2230
REMARK  1251  A    between atoms: N_2231  and  CA_2232
REMARK  1252  A    between atoms: CA_2232  and  C_2233
REMARK  1253  A    between atoms: CA_2232  and  CB_2235
REMARK  1254  A    between atoms: CB_2235  and  CG_2236
REMARK  1255  A    between atoms: CG_2236  and  CD1_2237
REMARK  1256  A    between atoms: CG_2236  and  CD2_2238
REMARK  1257  A    between atoms: N_2239  and  CA_2240
REMARK  1258  A    between atoms: CA_2240  and  C_2241
REMARK  1259  A    between atoms: CA_2240  and  CB_2243
REMARK  1260  A    between atoms: CB_2243  and  CG_2244
REMARK  1261  A    between atoms: CG_2244  and  CD1_2245
REMARK  1262  A    between atoms: CG_2244  and  CD2_2246
REMARK  1263  A    between atoms: N_2247  and  CA_2248
REMARK  1264  A    between atoms: CA_2248  and  C_2249
REMARK  1265  A    between atoms: CA_2248  and  CB_2251
REMARK  1266  A    between atoms: CB_2251  and  CG_2252
REMARK  1267  A    between atoms: CG_2252  and  CD_2253
REMARK  1268  A    between atoms: N_2256  and  CA_2257
REMARK  1269  A    between atoms: CA_2257  and  C_2258
REMARK  1270  A    between atoms: CA_2257  and  CB_2260
REMARK  1271  A    between atoms: CB_2260  and  CG_2261
REMARK  1272  A    between atoms: CG_2261  and  CD_2262
REMARK  1273  A    between atoms: CD_2262  and  CE_2263
REMARK  1274  A    between atoms: CE_2263  and  NZ_2264
REMARK  1275  A    between atoms: N_2265  and  C_2266
REMARK  1276  A    between atoms: C_2266  and  C_2267
REMARK  1277  A    between atoms: C_2266  and  C_2269
REMARK  1278  A    between atoms: C_2269  and  C_2270
REMARK  1279  A    between atoms: N_2271  and  CA_2272
REMARK  1280  A    between atoms: CA_2272  and  C_2273
REMARK  1281  A    between atoms: CA_2272  and  CB_2275
REMARK  1282  A    between atoms: CB_2275  and  CG_2276
REMARK  1283  A    between atoms: CG_2276  and  CD2_2277
REMARK  1284  A    between atoms: CG_2276  and  CD1_2278
REMARK  1285  A    between atoms: N_2279  and  CA_2280
REMARK  1286  A    between atoms: CA_2280  and  C_2281
REMARK  1287  A    between atoms: CA_2280  and  CB_2283
REMARK  1288  A    between atoms: CB_2283  and  CG_2284
REMARK  1289  A    between atoms: N_2293  and  CA_2294
REMARK  1290  A    between atoms: CA_2294  and  C_2295
REMARK                            x       y       z     vdW  Elec       q    Type
REMARK                         _______ _______ _______ _____ _____    ______ ____
ROOT
ATOM      1  C   UNL     5     -55.768  31.643   4.761  0.00  0.00    +0.322 C 
ATOM      2  O   UNL     5     -56.074  30.607   4.156  0.00  0.00    -0.280 OA
ATOM      3  N   UNL     5     -54.551  31.855   5.258  0.00  0.00    -0.332 N 
ATOM      4  H   UNL     5     -53.850  31.172   5.151  0.00  0.00    +0.145 HD
ATOM      5  H   UNL     5     -54.352  32.695   5.732  0.00  0.00    +0.145 HD
ENDROOT
TORSDOF 0
REMARK  Name = /Users/wangyang/Desktop/Breast_cancer_brain_metastasis/wang_Gene/AIDD/15_Protein_ligand_docking/data_7ztl/protein.pdb
REMARK  1290 active torsions:
REMARK  status: ('A' for Active; 'I' for Inactive)
REMARK    1  A    between atoms: N_1  and  CA_2
REMARK    2  A    between atoms: CA_2  and  C_3
REMARK    3  A    between atoms: N_5  and  CA_6
REMARK    4  A    between atoms: CA_6  and  C_7
REMARK    5  A    between atoms: CA_6  and  CB_9
REMARK    6  A    between atoms: N_10  and  CA_11
REMARK    7  A    between atoms: CA_11  and  C_12
REMARK    8  A    between atoms: CA_11  and  CB_14
REMARK    9  A    between atoms: CB_14  and  CG_15
REMARK   10  A    between atoms: N_24  and  CA_25
REMARK   11  A    between atoms: CA_25  and  C_26
REMARK   12  A    between atoms: CA_25  and  CB_28
REMARK   13  A    between atoms: N_29  and  CA_30
REMARK   14  A    between atoms: CA_30  and  C_31
REMARK   15  A    between atoms: CA_30  and  CB_33
REMARK   16  A    between atoms: CB_33  and  CG_34
REMARK   17  A    between atoms: CG_34  and  CD1_35
REMARK   18  A    between atoms: CG_34  and  CD2_36
REMARK   19  A    between atoms: N_37  and  CA_38
REMARK   20  A    between atoms: CA_38  and  C_39
REMARK   21  A    between atoms: CA_38  and  CB_41
REMARK   22  A    between atoms: CB_41  and  CG_42
REMARK   23  A    between atoms: CG_42  and  CD_43
REMARK   24  A    between atoms: N_46  and  CA_47
REMARK   25  A    between atoms: CA_47  and  C_48
REMARK   26  A    between atoms: CA_47  and  CB_50
REMARK   27  A    between atoms: CB_50  and  CG_51
REMARK   28  A    between atoms: N_54  and  CA_55
REMARK   29  A    between atoms: CA_55  and  C_56
REMARK   30  A    between atoms: CA_55  and  CB_58
REMARK   31  A    between atoms: CB_58  and  CG_59
REMARK   32  A    between atoms: N_65  and  CA_66
REMARK   33  A    between atoms: CA_66  and  C_67
REMARK   34  A    between atoms: CA_66  and  CB_69
REMARK   35  A    between atoms: CB_69  and  CG_70
REMARK   36  A    between atoms: CG_70  and  CD_71
REMARK   37  A    between atoms: N_74  and  CA_75
REMARK   38  A    between atoms: CA_75  and  C_76
REMARK   39  A    between atoms: CA_75  and  CB_78
REMARK   40  A    between atoms: CB_78  and  CG1_79
REMARK   41  A    between atoms: CB_78  and  CG2_80
REMARK   42  A    between atoms: CG1_79  and  CD1_81
REMARK   43  A    between atoms: N_82  and  CA_83
REMARK   44  A    between atoms: CA_83  and  C_84
REMARK   45  A    between atoms: N_86  and  CA_87
REMARK   46  A    between atoms: CA_87  and  C_88
REMARK   47  A    between atoms: CA_87  and  CB_90
REMARK   48  A    between atoms: CB_90  and  CG_91
REMARK   49  A    between atoms: CG_91  and  CD_92
REMARK   50  A    between atoms: CD_92  and  NE_93
REMARK   51  A    between atoms: CA_98  and  C_99
REMARK   52  A    between atoms: N_104  and  CA_105
REMARK   53  A    between atoms: CA_105  and  C_106
REMARK   54  A    between atoms: CA_105  and  CB_108
REMARK   55  A    between atoms: CB_108  and  CG_109
REMARK   56  A    between atoms: CG_109  and  CD1_110
REMARK   57  A    between atoms: CG_109  and  CD2_111
REMARK   58  A    between atoms: N_112  and  CA_113
REMARK   59  A    between atoms: CA_113  and  C_114
REMARK   60  A    between atoms: N_116  and  C_117
REMARK   61  A    between atoms: C_117  and  C_118
REMARK   62  A    between atoms: C_117  and  C_120
REMARK   63  A    between atoms: C_120  and  C_121
REMARK   64  A    between atoms: C_121  and  C_122
REMARK   65  A    between atoms: N_123  and  CA_124
REMARK   66  A    between atoms: CA_124  and  C_125
REMARK   67  A    between atoms: N_127  and  CA_128
REMARK   68  A    between atoms: CA_128  and  C_129
REMARK   69  A    between atoms: CA_128  and  CB_131
REMARK   70  A    between atoms: CB_131  and  CG_132
REMARK   71  A    between atoms: CG_132  and  CD_133
REMARK   72  A    between atoms: CD_133  and  CE_134
REMARK   73  A    between atoms: CE_134  and  NZ_135
REMARK   74  A    between atoms: N_136  and  CA_137
REMARK   75  A    between atoms: CA_137  and  C_138
REMARK   76  A    between atoms: CA_137  and  CB_140
REMARK   77  A    between atoms: CB_140  and  CG_141
REMARK   78  A    between atoms: N_147  and  CA_148
REMARK   79  A    between atoms: CA_148  and  C_149
REMARK   80  A    between atoms: N_151  and  CA_152
REMARK   81  A    between atoms: CA_152  and  C_153
REMARK   82  A    between atoms: CA_152  and  CB_155
REMARK   83  A    between atoms: CB_155  and  CG_156
REMARK   84  A    between atoms: N_159  and  CA_160
REMARK   85  A    between atoms: CA_160  and  C_161
REMARK   86  A    between atoms: CA_160  and  CB_163
REMARK   87  A    between atoms: CB_163  and  CG1_164
REMARK   88  A    between atoms: CB_163  and  CG2_165
REMARK   89  A    between atoms: N_166  and  CA_167
REMARK   90  A    between atoms: CA_167  and  C_168
REMARK   91  A    between atoms: CA_167  and  CB_170
REMARK   92  A    between atoms: CB_170  and  CG_171
REMARK   93  A    between atoms: CZ_176  and  OH_177
REMARK   94  A    between atoms: N_178  and  CA_179
REMARK   95  A    between atoms: CA_179  and  C_180
REMARK   96  A    between atoms: CA_179  and  CB_182
REMARK   97  A    between atoms: CB_182  and  CG_183
REMARK   98  A    between atoms: CG_183  and  CD1_184
REMARK   99  A    between atoms: CG_183  and  CD2_185
REMARK  100  A    between atoms: N_186  and  CA_187
REMARK  101  A    between atoms: CA_187  and  C_188
REMARK  102  A    between atoms: CA_187  and  CB_190
REMARK  103  A    between atoms: N_191  and  CA_192
REMARK  104  A    between atoms: CA_192  and  C_193
REMARK  105  A    between atoms: CA_192  and  CB_195
REMARK  106  A    between atoms: CB_195  and  CG_196
REMARK  107  A    between atoms: CG_196  and  CD_197
REMARK  108  A    between atoms: CD_197  and  NE_198
REMARK  109  A    between atoms: N_202  and  CA_203
REMARK  110  A    between atoms: CA_203  and  C_204
REMARK  111  A    between atoms: CA_203  and  CB_206
REMARK  112  A    between atoms: CB_206  and  CG_207
REMARK  113  A    between atoms: CG_207  and  CD_208
REMARK  114  A    between atoms: N_211  and  CA_212
REMARK  115  A    between atoms: CA_212  and  C_213
REMARK  116  A    between atoms: CA_212  and  CB_215
REMARK  117  A    between atoms: CB_215  and  CG_216
REMARK  118  A    between atoms: CG_216  and  CD_217
REMARK  119  A    between atoms: CD_217  and  CE_218
REMARK  120  A    between atoms: CE_218  and  NZ_219
REMARK  121  A    between atoms: N_220  and  CA_221
REMARK  122  A    between atoms: CA_221  and  C_222
REMARK  123  A    between atoms: CA_221  and  CB_224
REMARK  124  A    between atoms: N_225  and  CA_226
REMARK  125  A    between atoms: CA_226  and  C_227
REMARK  126  A    between atoms: CA_226  and  CB_229
REMARK  127  A    between atoms: CB_229  and  OG_230
REMARK  128  A    between atoms: N_231  and  CA_232
REMARK  129  A    between atoms: CA_232  and  C_233
REMARK  130  A    between atoms: CA_232  and  CB_235
REMARK  131  A    between atoms: CB_235  and  CG_236
REMARK  132  A    between atoms: CG_236  and  CD_237
REMARK  133  A    between atoms: CD_237  and  CE_238
REMARK  134  A    between atoms: CE_238  and  NZ_239
REMARK  135  A    between atoms: N_240  and  CA_241
REMARK  136  A    between atoms: CA_241  and  C_242
REMARK  137  A    between atoms: CA_241  and  CB_244
REMARK  138  A    between atoms: CB_244  and  CG_245
REMARK  139  A    between atoms: N_251  and  CA_252
REMARK  140  A    between atoms: CA_252  and  C_253
REMARK  141  A    between atoms: CA_252  and  CB_255
REMARK  142  A    between atoms: CB_255  and  CG1_256
REMARK  143  A    between atoms: CB_255  and  CG2_257
REMARK  144  A    between atoms: CG1_256  and  CD1_258
REMARK  145  A    between atoms: N_259  and  CA_260
REMARK  146  A    between atoms: CA_260  and  C_261
REMARK  147  A    between atoms: CA_260  and  CB_263
REMARK  148  A    between atoms: CB_263  and  CG_264
REMARK  149  A    between atoms: CG_264  and  CD1_265
REMARK  150  A    between atoms: CG_264  and  CD2_266
REMARK  151  A    between atoms: N_267  and  CA_268
REMARK  152  A    between atoms: CA_268  and  C_269
REMARK  153  A    between atoms: CA_268  and  CB_271
REMARK  154  A    between atoms: N_272  and  CA_273
REMARK  155  A    between atoms: CA_273  and  C_274
REMARK  156  A    between atoms: CA_273  and  CB_276
REMARK  157  A    between atoms: CB_276  and  CG_277
REMARK  158  A    between atoms: CG_277  and  CD2_278
REMARK  159  A    between atoms: CG_277  and  CD1_279
REMARK  160  A    between atoms: N_280  and  CA_281
REMARK  161  A    between atoms: CA_281  and  C_282
REMARK  162  A    between atoms: CA_281  and  CB_284
REMARK  163  A    between atoms: CB_284  and  CG_285
REMARK  164  A    between atoms: CG_285  and  CD_286
REMARK  165  A    between atoms: CD_286  and  CE_287
REMARK  166  A    between atoms: CE_287  and  NZ_288
REMARK  167  A    between atoms: N_289  and  CA_290
REMARK  168  A    between atoms: CA_290  and  C_291
REMARK  169  A    between atoms: CA_290  and  CB_293
REMARK  170  A    between atoms: CB_293  and  CG2_294
REMARK  171  A    between atoms: CB_293  and  CG1_295
REMARK  172  A    between atoms: N_296  and  CA_297
REMARK  173  A    between atoms: CA_297  and  C_298
REMARK  174  A    between atoms: CA_297  and  CB_300
REMARK  175  A    between atoms: CB_300  and  CG_301
REMARK  176  A    between atoms: CG_301  and  CD1_302
REMARK  177  A    between atoms: CG_301  and  CD2_303
REMARK  178  A    between atoms: N_304  and  CA_305
REMARK  179  A    between atoms: CA_305  and  C_306
REMARK  180  A    between atoms: CA_305  and  CB_308
REMARK  181  A    between atoms: CB_308  and  CG_309
REMARK  182  A    between atoms: N_315  and  CA_316
REMARK  183  A    between atoms: CA_316  and  C_317
REMARK  184  A    between atoms: CA_316  and  CB_319
REMARK  185  A    between atoms: CB_319  and  CG_320
REMARK  186  A    between atoms: CG_320  and  CD_321
REMARK  187  A    between atoms: CD_321  and  CE_322
REMARK  188  A    between atoms: CE_322  and  NZ_323
REMARK  189  A    between atoms: N_324  and  CA_325
REMARK  190  A    between atoms: CA_325  and  C_326
REMARK  191  A    between atoms: CA_325  and  CB_328
REMARK  192  A    between atoms: N_329  and  CA_330
REMARK  193  A    between atoms: CA_330  and  C_331
REMARK  194  A    between atoms: CA_330  and  CB_333
REMARK  195  A    between atoms: CB_333  and  CG_334
REMARK  196  A    between atoms: CG_334  and  CD_335
REMARK  197  A    between atoms: N_338  and  CA_339
REMARK  198  A    between atoms: CA_339  and  C_340
REMARK  199  A    between atoms: CA_339  and  CB_342
REMARK  200  A    between atoms: CB_342  and  CG_343
REMARK  201  A    between atoms: CG_343  and  CD1_344
REMARK  202  A    between atoms: CG_343  and  CD2_345
REMARK  203  A    between atoms: N_346  and  CA_347
REMARK  204  A    between atoms: CA_347  and  C_348
REMARK  205  A    between atoms: CA_347  and  CB_350
REMARK  206  A    between atoms: CB_350  and  CG_351
REMARK  207  A    between atoms: CG_351  and  CD_352
REMARK  208  A    between atoms: N_355  and  C_356
REMARK  209  A    between atoms: C_356  and  C_357
REMARK  210  A    between atoms: C_356  and  C_359
REMARK  211  A    between atoms: C_359  and  C_360
REMARK  212  A    between atoms: N_361  and  CA_362
REMARK  213  A    between atoms: CA_362  and  C_363
REMARK  214  A    between atoms: CA_362  and  CB_365
REMARK  215  A    between atoms: N_366  and  CA_367
REMARK  216  A    between atoms: CA_367  and  C_368
REMARK  217  A    between atoms: N_370  and  CA_371
REMARK  218  A    between atoms: CA_371  and  C_372
REMARK  219  A    between atoms: CA_371  and  CB_374
REMARK  220  A    between atoms: CB_374  and  CG2_375
REMARK  221  A    between atoms: CB_374  and  CG1_376
REMARK  222  A    between atoms: N_377  and  CA_378
REMARK  223  A    between atoms: CA_378  and  C_379
REMARK  224  A    between atoms: CA_378  and  CB_381
REMARK  225  A    between atoms: CB_381  and  CG_382
REMARK  226  A    between atoms: CG_382  and  CD_383
REMARK  227  A    between atoms: N_386  and  CA_387
REMARK  228  A    between atoms: CA_387  and  C_388
REMARK  229  A    between atoms: CA_387  and  CB_390
REMARK  230  A    between atoms: CB_390  and  CG_391
REMARK  231  A    between atoms: N_396  and  CA_397
REMARK  232  A    between atoms: CA_397  and  C_398
REMARK  233  A    between atoms: CA_397  and  CB_400
REMARK  234  A    between atoms: CB_400  and  CG_401
REMARK  235  A    between atoms: CG_401  and  CD_402
REMARK  236  A    between atoms: N_405  and  CA_406
REMARK  237  A    between atoms: CA_406  and  C_407
REMARK  238  A    between atoms: CA_406  and  CB_409
REMARK  239  A    between atoms: CB_409  and  CG_410
REMARK  240  A    between atoms: CG_410  and  CD2_411
REMARK  241  A    between atoms: CG_410  and  CD1_412
REMARK  242  A    between atoms: N_413  and  CA_414
REMARK  243  A    between atoms: CA_414  and  C_415
REMARK  244  A    between atoms: CA_414  and  CB_417
REMARK  245  A    between atoms: CB_417  and  CG_418
REMARK  246  A    between atoms: CG_418  and  CD_419
REMARK  247  A    between atoms: CD_419  and  NE_420
REMARK  248  A    between atoms: N_424  and  CA_425
REMARK  249  A    between atoms: CA_425  and  C_426
REMARK  250  A    between atoms: CA_425  and  CB_428
REMARK  251  A    between atoms: CB_428  and  CG_429
REMARK  252  A    between atoms: CG_429  and  CD_430
REMARK  253  A    between atoms: CD_430  and  NE_431
REMARK  254  A    between atoms: N_435  and  CA_436
REMARK  255  A    between atoms: CA_436  and  C_437
REMARK  256  A    between atoms: CA_436  and  CB_439
REMARK  257  A    between atoms: CB_439  and  CG_440
REMARK  258  A    between atoms: CG_440  and  CD_441
REMARK  259  A    between atoms: N_444  and  CA_445
REMARK  260  A    between atoms: CA_445  and  C_446
REMARK  261  A    between atoms: CA_445  and  CB_448
REMARK  262  A    between atoms: CB_448  and  CG1_449
REMARK  263  A    between atoms: CB_448  and  CG2_450
REMARK  264  A    between atoms: N_451  and  C_452
REMARK  265  A    between atoms: C_452  and  C_453
REMARK  266  A    between atoms: C_452  and  C_455
REMARK  267  A    between atoms: C_455  and  C_456
REMARK  268  A    between atoms: N_457  and  CA_458
REMARK  269  A    between atoms: CA_458  and  C_459
REMARK  270  A    between atoms: CA_458  and  CB_461
REMARK  271  A    between atoms: CB_461  and  CG1_462
REMARK  272  A    between atoms: CB_461  and  CG2_463
REMARK  273  A    between atoms: CG1_462  and  CD1_464
REMARK  274  A    between atoms: N_465  and  CA_466
REMARK  275  A    between atoms: CA_466  and  C_467
REMARK  276  A    between atoms: CA_466  and  CB_469
REMARK  277  A    between atoms: CB_469  and  CG_470
REMARK  278  A    between atoms: CG_470  and  CD_471
REMARK  279  A    between atoms: N_474  and  C_475
REMARK  280  A    between atoms: C_475  and  C_476
REMARK  281  A    between atoms: C_475  and  C_478
REMARK  282  A    between atoms: C_478  and  O_479
REMARK  283  A    between atoms: N_480  and  C_481
REMARK  284  A    between atoms: C_481  and  C_482
REMARK  285  A    between atoms: C_481  and  C_484
REMARK  286  A    between atoms: C_484  and  C_485
REMARK  287  A    between atoms: N_490  and  C_491
REMARK  288  A    between atoms: C_491  and  C_492
REMARK  289  A    between atoms: C_491  and  C_494
REMARK  290  A    between atoms: C_494  and  C_495
REMARK  291  A    between atoms: C_495  and  C_496
REMARK  292  A    between atoms: C_495  and  C_497
REMARK  293  A    between atoms: N_498  and  C_499
REMARK  294  A    between atoms: C_499  and  C_500
REMARK  295  A    between atoms: C_499  and  C_502
REMARK  296  A    between atoms: C_502  and  C_503
REMARK  297  A    between atoms: C_503  and  C_504
REMARK  298  A    between atoms: C_504  and  N_505
REMARK  299  A    between atoms: N_509  and  C_510
REMARK  300  A    between atoms: C_510  and  C_511
REMARK  301  A    between atoms: C_510  and  C_513
REMARK  302  A    between atoms: C_513  and  C_514
REMARK  303  A    between atoms: C_520  and  C_521
REMARK  304  A    between atoms: N_526  and  C_527
REMARK  305  A    between atoms: C_527  and  C_528
REMARK  306  A    between atoms: C_527  and  C_530
REMARK  307  A    between atoms: C_530  and  C_531
REMARK  308  A    between atoms: N_534  and  C_535
REMARK  309  A    between atoms: C_535  and  C_536
REMARK  310  A    between atoms: C_535  and  C_538
REMARK  311  A    between atoms: C_538  and  C_539
REMARK  312  A    between atoms: C_538  and  C_540
REMARK  313  A    between atoms: C_539  and  C_541
REMARK  314  A    between atoms: N_542  and  C_543
REMARK  315  A    between atoms: C_543  and  C_544
REMARK  316  A    between atoms: C_543  and  C_546
REMARK  317  A    between atoms: C_546  and  C_547
REMARK  318  A    between atoms: C_547  and  C_548
REMARK  319  A    between atoms: C_547  and  C_549
REMARK  320  A    between atoms: N_550  and  C_551
REMARK  321  A    between atoms: C_551  and  C_552
REMARK  322  A    between atoms: C_551  and  C_554
REMARK  323  A    between atoms: C_554  and  C_555
REMARK  324  A    between atoms: C_555  and  C_556
REMARK  325  A    between atoms: C_556  and  N_557
REMARK  326  A    between atoms: N_561  and  C_562
REMARK  327  A    between atoms: C_562  and  C_567
REMARK  328  A    between atoms: C_563  and  C_564
REMARK  329  A    between atoms: C_568  and  C_569
REMARK  330  A    between atoms: C_568  and  C_571
REMARK  331  A    between atoms: C_569  and  C_572
REMARK  332  A    between atoms: C_569  and  C_573
REMARK  333  A    between atoms: C_570  and  C_573
REMARK  334  A    between atoms: N_574  and  CA_575
REMARK  335  A    between atoms: CA_575  and  C_576
REMARK  336  A    between atoms: CA_575  and  CB_578
REMARK  337  A    between atoms: CB_578  and  CG_579
REMARK  338  A    between atoms: CZ_584  and  OH_585
REMARK  339  A    between atoms: N_586  and  CA_587
REMARK  340  A    between atoms: CA_587  and  C_588
REMARK  341  A    between atoms: N_590  and  CA_591
REMARK  342  A    between atoms: CA_591  and  C_592
REMARK  343  A    between atoms: CA_591  and  CB_594
REMARK  344  A    between atoms: CB_594  and  CG_595
REMARK  345  A    between atoms: CZ_600  and  OH_601
REMARK  346  A    between atoms: N_602  and  CA_603
REMARK  347  A    between atoms: CA_603  and  C_604
REMARK  348  A    between atoms: CA_603  and  CB_606
REMARK  349  A    between atoms: CB_606  and  CG_607
REMARK  350  A    between atoms: N_613  and  CA_614
REMARK  351  A    between atoms: CA_614  and  C_615
REMARK  352  A    between atoms: CA_614  and  CB_617
REMARK  353  A    between atoms: CB_617  and  CG_618
REMARK  354  A    between atoms: N_623  and  CA_624
REMARK  355  A    between atoms: CA_624  and  C_625
REMARK  356  A    between atoms: CA_624  and  CB_627
REMARK  357  A    between atoms: CB_627  and  CG_628
REMARK  358  A    between atoms: N_631  and  CA_632
REMARK  359  A    between atoms: CA_632  and  C_633
REMARK  360  A    between atoms: CA_632  and  CB_635
REMARK  361  A    between atoms: N_636  and  CA_637
REMARK  362  A    between atoms: CA_637  and  C_638
REMARK  363  A    between atoms: CA_637  and  CB_640
REMARK  364  A    between atoms: CB_640  and  OG1_641
REMARK  365  A    between atoms: CB_640  and  CG2_642
REMARK  366  A    between atoms: N_643  and  CA_644
REMARK  367  A    between atoms: CA_644  and  C_645
REMARK  368  A    between atoms: CA_644  and  CB_647
REMARK  369  A    between atoms: CB_647  and  CG_648
REMARK  370  A    between atoms: CG_648  and  CD_649
REMARK  371  A    between atoms: CD_649  and  NE_650
REMARK  372  A    between atoms: N_654  and  CA_655
REMARK  373  A    between atoms: CA_655  and  C_656
REMARK  374  A    between atoms: CA_655  and  CB_658
REMARK  375  A    between atoms: CB_658  and  CG1_659
REMARK  376  A    between atoms: CB_658  and  CG2_660
REMARK  377  A    between atoms: N_661  and  CA_662
REMARK  378  A    between atoms: CA_662  and  C_663
REMARK  379  A    between atoms: CA_662  and  CB_665
REMARK  380  A    between atoms: CB_665  and  CG_666
REMARK  381  A    between atoms: CZ_671  and  OH_672
REMARK  382  A    between atoms: N_673  and  CA_674
REMARK  383  A    between atoms: CA_674  and  C_675
REMARK  384  A    between atoms: CA_674  and  CB_677
REMARK  385  A    between atoms: CB_677  and  CG_678
REMARK  386  A    between atoms: CG_678  and  CD2_679
REMARK  387  A    between atoms: CG_678  and  CD1_680
REMARK  388  A    between atoms: N_681  and  CA_682
REMARK  389  A    between atoms: CA_682  and  C_683
REMARK  390  A    between atoms: CA_682  and  CB_685
REMARK  391  A    between atoms: CB_685  and  CG1_686
REMARK  392  A    between atoms: CB_685  and  CG2_687
REMARK  393  A    between atoms: CG1_686  and  CD1_688
REMARK  394  A    between atoms: N_689  and  CA_690
REMARK  395  A    between atoms: CA_690  and  C_691
REMARK  396  A    between atoms: CA_690  and  CB_693
REMARK  397  A    between atoms: CB_693  and  CG_694
REMARK  398  A    between atoms: CG_694  and  CD2_695
REMARK  399  A    between atoms: CG_694  and  CD1_696
REMARK  400  A    between atoms: N_697  and  CA_698
REMARK  401  A    between atoms: CA_698  and  C_699
REMARK  402  A    between atoms: CA_698  and  CB_701
REMARK  403  A    between atoms: CB_701  and  CG_702
REMARK  404  A    between atoms: CG_702  and  CD_703
REMARK  405  A    between atoms: N_706  and  CA_707
REMARK  406  A    between atoms: CA_707  and  C_708
REMARK  407  A    between atoms: CA_707  and  CB_710
REMARK  408  A    between atoms: CB_710  and  CG_711
REMARK  409  A    between atoms: CZ_716  and  OH_717
REMARK  410  A    between atoms: N_718  and  CA_719
REMARK  411  A    between atoms: CA_719  and  C_720
REMARK  412  A    between atoms: CA_719  and  CB_722
REMARK  413  A    between atoms: CA_724  and  C_725
REMARK  414  A    between atoms: N_730  and  CA_731
REMARK  415  A    between atoms: CA_731  and  C_732
REMARK  416  A    between atoms: CA_731  and  CB_734
REMARK  417  A    between atoms: CB_734  and  CG_735
REMARK  418  A    between atoms: CG_735  and  CD1_736
REMARK  419  A    between atoms: CG_735  and  CD2_737
REMARK  420  A    between atoms: N_738  and  CA_739
REMARK  421  A    between atoms: CA_739  and  C_740
REMARK  422  A    between atoms: N_742  and  CA_743
REMARK  423  A    between atoms: CA_743  and  C_744
REMARK  424  A    between atoms: CA_743  and  CB_746
REMARK  425  A    between atoms: CB_746  and  OG1_747
REMARK  426  A    between atoms: CB_746  and  CG2_748
REMARK  427  A    between atoms: N_749  and  CA_750
REMARK  428  A    between atoms: CA_750  and  C_751
REMARK  429  A    between atoms: CA_750  and  CB_753
REMARK  430  A    between atoms: CB_753  and  CG2_754
REMARK  431  A    between atoms: CB_753  and  CG1_755
REMARK  432  A    between atoms: N_756  and  CA_757
REMARK  433  A    between atoms: CA_757  and  C_758
REMARK  434  A    between atoms: CA_757  and  CB_760
REMARK  435  A    between atoms: CB_760  and  CG_761
REMARK  436  A    between atoms: CZ_766  and  OH_767
REMARK  437  A    between atoms: N_768  and  C_769
REMARK  438  A    between atoms: C_769  and  C_770
REMARK  439  A    between atoms: C_769  and  C_772
REMARK  440  A    between atoms: C_772  and  C_773
REMARK  441  A    between atoms: N_774  and  CA_775
REMARK  442  A    between atoms: CA_775  and  C_776
REMARK  443  A    between atoms: CA_775  and  CB_778
REMARK  444  A    between atoms: CB_778  and  CG_779
REMARK  445  A    between atoms: CG_779  and  CD_780
REMARK  446  A    between atoms: N_783  and  CA_784
REMARK  447  A    between atoms: CA_784  and  C_785
REMARK  448  A    between atoms: CA_784  and  CB_787
REMARK  449  A    between atoms: CB_787  and  CG_788
REMARK  450  A    between atoms: CG_788  and  CD2_789
REMARK  451  A    between atoms: CG_788  and  CD1_790
REMARK  452  A    between atoms: N_791  and  CA_792
REMARK  453  A    between atoms: CA_792  and  C_793
REMARK  454  A    between atoms: CA_792  and  CB_795
REMARK  455  A    between atoms: CB_795  and  CG_796
REMARK  456  A    between atoms: CG_796  and  CD_797
REMARK  457  A    between atoms: N_800  and  CA_801
REMARK  458  A    between atoms: CA_801  and  C_802
REMARK  459  A    between atoms: CA_801  and  CB_804
REMARK  460  A    between atoms: CB_804  and  CG_805
REMARK  461  A    between atoms: CG_805  and  CD_806
REMARK  462  A    between atoms: CD_806  and  CE_807
REMARK  463  A    between atoms: CE_807  and  NZ_808
REMARK  464  A    between atoms: N_809  and  CA_810
REMARK  465  A    between atoms: CA_810  and  C_811
REMARK  466  A    between atoms: CA_810  and  CB_813
REMARK  467  A    between atoms: CB_813  and  CG_814
REMARK  468  A    between atoms: CG_814  and  CD1_815
REMARK  469  A    between atoms: CG_814  and  CD2_816
REMARK  470  A    between atoms: N_817  and  CA_818
REMARK  471  A    between atoms: CA_818  and  C_819
REMARK  472  A    between atoms: CA_818  and  CB_821
REMARK  473  A    between atoms: CB_821  and  OG_822
REMARK  474  A    between atoms: N_823  and  CA_824
REMARK  475  A    between atoms: CA_824  and  C_825
REMARK  476  A    between atoms: CA_824  and  CB_827
REMARK  477  A    between atoms: CB_827  and  CG_828
REMARK  478  A    between atoms: CG_828  and  CD_829
REMARK  479  A    between atoms: CD_829  and  CE_830
REMARK  480  A    between atoms: CE_830  and  NZ_831
REMARK  481  A    between atoms: N_832  and  CA_833
REMARK  482  A    between atoms: CA_833  and  C_834
REMARK  483  A    between atoms: CA_833  and  CB_836
REMARK  484  A    between atoms: CB_836  and  CG_837
REMARK  485  A    between atoms: N_843  and  CA_844
REMARK  486  A    between atoms: CA_844  and  C_845
REMARK  487  A    between atoms: CA_844  and  CB_847
REMARK  488  A    between atoms: CB_847  and  CG_848
REMARK  489  A    between atoms: N_851  and  CA_852
REMARK  490  A    between atoms: CA_852  and  C_853
REMARK  491  A    between atoms: CA_852  and  CB_855
REMARK  492  A    between atoms: CB_855  and  CG_856
REMARK  493  A    between atoms: CG_856  and  CD_857
REMARK  494  A    between atoms: N_860  and  CA_861
REMARK  495  A    between atoms: CA_861  and  C_862
REMARK  496  A    between atoms: CA_861  and  CB_864
REMARK  497  A    between atoms: CB_864  and  CG_865
REMARK  498  A    between atoms: CG_865  and  CD_866
REMARK  499  A    between atoms: N_869  and  CA_870
REMARK  500  A    between atoms: CA_870  and  C_871
REMARK  501  A    between atoms: CA_870  and  CB_873
REMARK  502  A    between atoms: CB_873  and  CG_874
REMARK  503  A    between atoms: CG_874  and  CD_875
REMARK  504  A    between atoms: CD_875  and  NE_876
REMARK  505  A    between atoms: N_880  and  CA_881
REMARK  506  A    between atoms: CA_881  and  C_882
REMARK  507  A    between atoms: CA_881  and  CB_884
REMARK  508  A    between atoms: CB_884  and  OG1_885
REMARK  509  A    between atoms: CB_884  and  CG2_886
REMARK  510  A    between atoms: N_887  and  CA_888
REMARK  511  A    between atoms: CA_888  and  C_889
REMARK  512  A    between atoms: CA_888  and  CB_891
REMARK  513  A    between atoms: N_892  and  CA_893
REMARK  514  A    between atoms: CA_893  and  C_894
REMARK  515  A    between atoms: CA_893  and  CB_896
REMARK  516  A    between atoms: CB_896  and  OG1_897
REMARK  517  A    between atoms: CB_896  and  CG2_898
REMARK  518  A    between atoms: N_899  and  CA_900
REMARK  519  A    between atoms: CA_900  and  C_901
REMARK  520  A    between atoms: CA_900  and  CB_903
REMARK  521  A    between atoms: CB_903  and  CG_904
REMARK  522  A    between atoms: CZ_909  and  OH_910
REMARK  523  A    between atoms: N_911  and  CA_912
REMARK  524  A    between atoms: CA_912  and  C_913
REMARK  525  A    between atoms: CA_912  and  CB_915
REMARK  526  A    between atoms: CB_915  and  CG1_916
REMARK  527  A    between atoms: CB_915  and  CG2_917
REMARK  528  A    between atoms: CG1_916  and  CD1_918
REMARK  529  A    between atoms: N_919  and  CA_920
REMARK  530  A    between atoms: CA_920  and  C_921
REMARK  531  A    between atoms: CA_920  and  CB_923
REMARK  532  A    between atoms: CB_923  and  OG1_924
REMARK  533  A    between atoms: CB_923  and  CG2_925
REMARK  534  A    between atoms: N_926  and  CA_927
REMARK  535  A    between atoms: CA_927  and  C_928
REMARK  536  A    between atoms: CA_927  and  CB_930
REMARK  537  A    between atoms: CB_930  and  CG_931
REMARK  538  A    between atoms: CG_931  and  CD_932
REMARK  539  A    between atoms: N_935  and  CA_936
REMARK  540  A    between atoms: CA_936  and  C_937
REMARK  541  A    between atoms: CA_936  and  CB_939
REMARK  542  A    between atoms: CB_939  and  CG_940
REMARK  543  A    between atoms: CG_940  and  CD2_941
REMARK  544  A    between atoms: CG_940  and  CD1_942
REMARK  545  A    between atoms: N_943  and  CA_944
REMARK  546  A    between atoms: CA_944  and  C_945
REMARK  547  A    between atoms: CA_944  and  CB_947
REMARK  548  A    between atoms: N_948  and  CA_949
REMARK  549  A    between atoms: CA_949  and  C_950
REMARK  550  A    between atoms: CA_949  and  CB_952
REMARK  551  A    between atoms: CB_952  and  CG_953
REMARK  552  A    between atoms: N_956  and  CA_957
REMARK  553  A    between atoms: CA_957  and  C_958
REMARK  554  A    between atoms: CA_957  and  CB_960
REMARK  555  A    between atoms: N_961  and  CA_962
REMARK  556  A    between atoms: CA_962  and  C_963
REMARK  557  A    between atoms: CA_962  and  CB_965
REMARK  558  A    between atoms: CB_965  and  CG_966
REMARK  559  A    between atoms: CG_966  and  CD2_967
REMARK  560  A    between atoms: CG_966  and  CD1_968
REMARK  561  A    between atoms: N_969  and  CA_970
REMARK  562  A    between atoms: CA_970  and  C_971
REMARK  563  A    between atoms: CA_970  and  CB_973
REMARK  564  A    between atoms: CB_973  and  OG_974
REMARK  565  A    between atoms: N_975  and  CA_976
REMARK  566  A    between atoms: CA_976  and  C_977
REMARK  567  A    between atoms: CA_976  and  CB_979
REMARK  568  A    between atoms: CB_979  and  CG_980
REMARK  569  A    between atoms: CZ_985  and  OH_986
REMARK  570  A    between atoms: N_987  and  CA_988
REMARK  571  A    between atoms: CA_988  and  C_989
REMARK  572  A    between atoms: CA_988  and  CB_991
REMARK  573  A    between atoms: CB_991  and  SG_992
REMARK  574  A    between atoms: N_993  and  CA_994
REMARK  575  A    between atoms: CA_994  and  C_995
REMARK  576  A    between atoms: CA_994  and  CB_997
REMARK  577  A    between atoms: CB_997  and  CG_998
REMARK  578  A    between atoms: N_1003  and  C_1004
REMARK  579  A    between atoms: C_1004  and  C_1005
REMARK  580  A    between atoms: C_1004  and  C_1007
REMARK  581  A    between atoms: C_1007  and  O_1008
REMARK  582  A    between atoms: N_1009  and  C_1010
REMARK  583  A    between atoms: C_1010  and  C_1011
REMARK  584  A    between atoms: C_1010  and  C_1013
REMARK  585  A    between atoms: C_1013  and  C_1014
REMARK  586  A    between atoms: C_1014  and  C_1015
REMARK  587  A    between atoms: C_1015  and  C_1016
REMARK  588  A    between atoms: C_1016  and  N_1017
REMARK  589  A    between atoms: N_1018  and  C_1019
REMARK  590  A    between atoms: C_1020  and  C_1021
REMARK  591  A    between atoms: C_1020  and  C_1024
REMARK  592  A    between atoms: C_1023  and  C_1026
REMARK  593  A    between atoms: C_1025  and  C_1026
REMARK  594  A    between atoms: C_1027  and  N_1029
REMARK  595  A    between atoms: C_1028  and  N_1030
REMARK  596  A    between atoms: N_1037  and  C_1038
REMARK  597  A    between atoms: C_1038  and  C_1039
REMARK  598  A    between atoms: C_1038  and  C_1041
REMARK  599  A    between atoms: C_1041  and  C_1042
REMARK  600  A    between atoms: C_1041  and  C_1043
REMARK  601  A    between atoms: N_1044  and  C_1045
REMARK  602  A    between atoms: C_1045  and  C_1046
REMARK  603  A    between atoms: C_1045  and  C_1048
REMARK  604  A    between atoms: C_1048  and  C_1049
REMARK  605  A    between atoms: C_1048  and  C_1050
REMARK  606  A    between atoms: C_1049  and  C_1051
REMARK  607  A    between atoms: N_1052  and  C_1053
REMARK  608  A    between atoms: C_1053  and  C_1054
REMARK  609  A    between atoms: C_1053  and  C_1056
REMARK  610  A    between atoms: C_1056  and  C_1057
REMARK  611  A    between atoms: N_1062  and  C_1063
REMARK  612  A    between atoms: C_1063  and  C_1064
REMARK  613  A    between atoms: C_1063  and  C_1066
REMARK  614  A    between atoms: C_1066  and  C_1067
REMARK  615  A    between atoms: C_1067  and  C_1068
REMARK  616  A    between atoms: C_1068  and  N_1069
REMARK  617  A    between atoms: N_1073  and  C_1074
REMARK  618  A    between atoms: C_1074  and  C_1077
REMARK  619  A    between atoms: C_1077  and  C_1078
REMARK  620  A    between atoms: N_1081  and  C_1084
REMARK  621  A    between atoms: C_1083  and  C_1085
REMARK  622  A    between atoms: C_1085  and  C_1086
REMARK  623  A    between atoms: C_1085  and  O_1087
REMARK  624  A    between atoms: C_1085  and  N_1097
REMARK  625  A    between atoms: C_1089  and  C_1094
REMARK  626  A    between atoms: C_1090  and  C_1091
REMARK  627  A    between atoms: C_1093  and  C_1094
REMARK  628  A    between atoms: C_1098  and  C_1099
REMARK  629  A    between atoms: C_1098  and  C_1101
REMARK  630  A    between atoms: C_1101  and  C_1102
REMARK  631  A    between atoms: C_1102  and  C_1103
REMARK  632  A    between atoms: C_1103  and  C_1104
REMARK  633  A    between atoms: C_1104  and  N_1105
REMARK  634  A    between atoms: C_1107  and  C_1108
REMARK  635  A    between atoms: N_1113  and  CA_1114
REMARK  636  A    between atoms: CA_1114  and  C_1115
REMARK  637  A    between atoms: CA_1114  and  CB_1117
REMARK  638  A    between atoms: CB_1117  and  CG_1118
REMARK  639  A    between atoms: CG_1118  and  CD_1119
REMARK  640  A    between atoms: N_1122  and  CA_1123
REMARK  641  A    between atoms: CA_1123  and  C_1124
REMARK  642  A    between atoms: CA_1123  and  CB_1126
REMARK  643  A    between atoms: CB_1126  and  CG_1127
REMARK  644  A    between atoms: N_1130  and  CA_1131
REMARK  645  A    between atoms: CA_1131  and  C_1132
REMARK  646  A    between atoms: CA_1131  and  CB_1134
REMARK  647  A    between atoms: CB_1134  and  CG_1135
REMARK  648  A    between atoms: CG_1135  and  CD2_1136
REMARK  649  A    between atoms: CG_1135  and  CD1_1137
REMARK  650  A    between atoms: N_1138  and  CA_1139
REMARK  651  A    between atoms: CA_1139  and  C_1140
REMARK  652  A    between atoms: CA_1139  and  CB_1142
REMARK  653  A    between atoms: CB_1142  and  CG_1143
REMARK  654  A    between atoms: CG_1143  and  CD1_1144
REMARK  655  A    between atoms: CG_1143  and  CD2_1145
REMARK  656  A    between atoms: N_1146  and  CA_1147
REMARK  657  A    between atoms: CA_1147  and  C_1148
REMARK  658  A    between atoms: CA_1147  and  CB_1150
REMARK  659  A    between atoms: CB_1150  and  CG_1151
REMARK  660  A    between atoms: CG_1151  and  CD2_1152
REMARK  661  A    between atoms: CG_1151  and  CD1_1153
REMARK  662  A    between atoms: N_1154  and  CA_1155
REMARK  663  A    between atoms: CA_1155  and  C_1156
REMARK  664  A    between atoms: N_1158  and  CA_1159
REMARK  665  A    between atoms: CA_1159  and  C_1160
REMARK  666  A    between atoms: CA_1159  and  CB_1162
REMARK  667  A    between atoms: CB_1162  and  OG_1163
REMARK  668  A    between atoms: N_1164  and  CA_1165
REMARK  669  A    between atoms: CA_1165  and  C_1166
REMARK  670  A    between atoms: CA_1165  and  CB_1168
REMARK  671  A    between atoms: N_1169  and  CA_1170
REMARK  672  A    between atoms: CA_1170  and  C_1171
REMARK  673  A    between atoms: N_1173  and  CA_1174
REMARK  674  A    between atoms: CA_1174  and  C_1175
REMARK  675  A    between atoms: CA_1174  and  CB_1177
REMARK  676  A    between atoms: CB_1177  and  CG_1178
REMARK  677  A    between atoms: CG_1178  and  CD_1179
REMARK  678  A    between atoms: N_1182  and  CA_1183
REMARK  679  A    between atoms: CA_1183  and  C_1184
REMARK  680  A    between atoms: CA_1183  and  CB_1186
REMARK  681  A    between atoms: CB_1186  and  CG_1187
REMARK  682  A    between atoms: CG_1187  and  CD2_1188
REMARK  683  A    between atoms: CG_1187  and  CD1_1189
REMARK  684  A    between atoms: N_1190  and  CA_1191
REMARK  685  A    between atoms: CA_1191  and  C_1192
REMARK  686  A    between atoms: CA_1191  and  CB_1194
REMARK  687  A    between atoms: CB_1194  and  CG_1195
REMARK  688  A    between atoms: CG_1195  and  CD_1196
REMARK  689  A    between atoms: CD_1196  and  CE_1197
REMARK  690  A    between atoms: CE_1197  and  NZ_1198
REMARK  691  A    between atoms: N_1199  and  CA_1200
REMARK  692  A    between atoms: CA_1200  and  C_1201
REMARK  693  A    between atoms: CA_1200  and  CB_1203
REMARK  694  A    between atoms: CB_1203  and  CG1_1204
REMARK  695  A    between atoms: CB_1203  and  CG2_1205
REMARK  696  A    between atoms: CG1_1204  and  CD1_1206
REMARK  697  A    between atoms: N_1207  and  CA_1208
REMARK  698  A    between atoms: CA_1208  and  C_1209
REMARK  699  A    between atoms: CA_1208  and  CB_1211
REMARK  700  A    between atoms: N_1212  and  CA_1213
REMARK  701  A    between atoms: CA_1213  and  C_1214
REMARK  702  A    between atoms: CA_1213  and  CB_1216
REMARK  703  A    between atoms: CB_1216  and  CG_1217
REMARK  704  A    between atoms: N_1220  and  CA_1221
REMARK  705  A    between atoms: CA_1221  and  C_1222
REMARK  706  A    between atoms: CA_1221  and  CB_1224
REMARK  707  A    between atoms: CB_1224  and  CG_1225
REMARK  708  A    between atoms: N_1231  and  CA_1232
REMARK  709  A    between atoms: CA_1232  and  C_1233
REMARK  710  A    between atoms: N_1235  and  CA_1236
REMARK  711  A    between atoms: CA_1236  and  C_1237
REMARK  712  A    between atoms: CA_1236  and  CB_1239
REMARK  713  A    between atoms: CB_1239  and  CG_1240
REMARK  714  A    between atoms: N_1249  and  CA_1250
REMARK  715  A    between atoms: CA_1250  and  C_1251
REMARK  716  A    between atoms: CA_1250  and  CB_1253
REMARK  717  A    between atoms: CB_1253  and  OG_1254
REMARK  718  A    between atoms: N_1255  and  CA_1256
REMARK  719  A    between atoms: CA_1256  and  C_1257
REMARK  720  A    between atoms: CA_1256  and  CB_1259
REMARK  721  A    between atoms: CB_1259  and  CG2_1260
REMARK  722  A    between atoms: CB_1259  and  CG1_1261
REMARK  723  A    between atoms: N_1262  and  CA_1263
REMARK  724  A    between atoms: CA_1263  and  C_1264
REMARK  725  A    between atoms: CA_1263  and  CB_1266
REMARK  726  A    between atoms: CB_1266  and  CG_1267
REMARK  727  A    between atoms: N_1272  and  CA_1273
REMARK  728  A    between atoms: CA_1273  and  C_1274
REMARK  729  A    between atoms: CA_1273  and  CB_1276
REMARK  730  A    between atoms: CA_1278  and  C_1279
REMARK  731  A    between atoms: N_1284  and  CA_1285
REMARK  732  A    between atoms: CA_1285  and  C_1286
REMARK  733  A    between atoms: CA_1285  and  CB_1288
REMARK  734  A    between atoms: CB_1288  and  OG_1289
REMARK  735  A    between atoms: N_1290  and  CA_1291
REMARK  736  A    between atoms: CA_1291  and  C_1292
REMARK  737  A    between atoms: CA_1291  and  CB_1294
REMARK  738  A    between atoms: CB_1294  and  OG_1295
REMARK  739  A    between atoms: N_1296  and  C_1297
REMARK  740  A    between atoms: C_1297  and  C_1298
REMARK  741  A    between atoms: C_1297  and  C_1300
REMARK  742  A    between atoms: C_1300  and  C_1301
REMARK  743  A    between atoms: C_1301  and  C_1302
REMARK  744  A    between atoms: N_1303  and  CA_1304
REMARK  745  A    between atoms: CA_1304  and  C_1305
REMARK  746  A    between atoms: CA_1304  and  CB_1307
REMARK  747  A    between atoms: CB_1307  and  CG_1308
REMARK  748  A    between atoms: CG_1308  and  CD_1309
REMARK  749  A    between atoms: CD_1309  and  NE_1310
REMARK  750  A    between atoms: N_1314  and  CA_1315
REMARK  751  A    between atoms: CA_1315  and  C_1316
REMARK  752  A    between atoms: CA_1315  and  CB_1318
REMARK  753  A    between atoms: CB_1318  and  OG1_1319
REMARK  754  A    between atoms: CB_1318  and  CG2_1320
REMARK  755  A    between atoms: N_1321  and  C_1322
REMARK  756  A    between atoms: C_1322  and  C_1323
REMARK  757  A    between atoms: C_1322  and  C_1325
REMARK  758  A    between atoms: C_1325  and  C_1326
REMARK  759  A    between atoms: C_1326  and  C_1327
REMARK  760  A    between atoms: C_1326  and  C_1328
REMARK  761  A    between atoms: N_1329  and  C_1330
REMARK  762  A    between atoms: C_1330  and  C_1331
REMARK  763  A    between atoms: C_1330  and  C_1333
REMARK  764  A    between atoms: N_1334  and  C_1335
REMARK  765  A    between atoms: C_1335  and  C_1336
REMARK  766  A    between atoms: N_1338  and  C_1339
REMARK  767  A    between atoms: C_1339  and  C_1340
REMARK  768  A    between atoms: C_1339  and  C_1342
REMARK  769  A    between atoms: C_1342  and  O_1343
REMARK  770  A    between atoms: C_1342  and  C_1344
REMARK  771  A    between atoms: N_1345  and  C_1346
REMARK  772  A    between atoms: C_1346  and  C_1347
REMARK  773  A    between atoms: C_1346  and  C_1349
REMARK  774  A    between atoms: C_1349  and  C_1350
REMARK  775  A    between atoms: C_1350  and  C_1351
REMARK  776  A    between atoms: C_1350  and  C_1352
REMARK  777  A    between atoms: N_1353  and  C_1354
REMARK  778  A    between atoms: C_1354  and  C_1355
REMARK  779  A    between atoms: C_1354  and  C_1357
REMARK  780  A    between atoms: C_1357  and  C_1358
REMARK  781  A    between atoms: N_1361  and  C_1362
REMARK  782  A    between atoms: C_1362  and  C_1363
REMARK  783  A    between atoms: C_1362  and  C_1365
REMARK  784  A    between atoms: C_1365  and  C_1366
REMARK  785  A    between atoms: C_1371  and  O_1372
REMARK  786  A    between atoms: N_1373  and  C_1374
REMARK  787  A    between atoms: C_1374  and  C_1375
REMARK  788  A    between atoms: C_1374  and  C_1377
REMARK  789  A    between atoms: C_1377  and  C_1378
REMARK  790  A    between atoms: C_1378  and  C_1379
REMARK  791  A    between atoms: C_1378  and  C_1380
REMARK  792  A    between atoms: C_1382  and  C_1383
REMARK  793  A    between atoms: C_1389  and  C_1390
REMARK  794  A    between atoms: N_1395  and  C_1396
REMARK  795  A    between atoms: C_1396  and  C_1399
REMARK  796  A    between atoms: C_1399  and  C_1400
REMARK  797  A    between atoms: C_1400  and  C_1401
REMARK  798  A    between atoms: N_1405  and  C_1406
REMARK  799  A    between atoms: C_1407  and  C_1412
REMARK  800  A    between atoms: C_1408  and  O_1410
REMARK  801  A    between atoms: C_1409  and  O_1411
REMARK  802  A    between atoms: O_1410  and  O_1411
REMARK  803  A    between atoms: C_1412  and  C_1414
REMARK  804  A    between atoms: C_1413  and  C_1415
REMARK  805  A    between atoms: S_1416  and  C_1418
REMARK  806  A    between atoms: S_1417  and  C_1419
REMARK  807  A    between atoms: C_1418  and  C_1419
REMARK  808  A    between atoms: N_1420  and  CA_1421
REMARK  809  A    between atoms: CA_1421  and  C_1422
REMARK  810  A    between atoms: CA_1421  and  CB_1424
REMARK  811  A    between atoms: CB_1424  and  CG1_1425
REMARK  812  A    between atoms: CB_1424  and  CG2_1426
REMARK  813  A    between atoms: CG1_1425  and  CD1_1427
REMARK  814  A    between atoms: N_1428  and  CA_1429
REMARK  815  A    between atoms: CA_1429  and  C_1430
REMARK  816  A    between atoms: CA_1429  and  CB_1432
REMARK  817  A    between atoms: CB_1432  and  CG_1433
REMARK  818  A    between atoms: CG_1433  and  CD_1434
REMARK  819  A    between atoms: N_1437  and  CA_1438
REMARK  820  A    between atoms: CA_1438  and  C_1439
REMARK  821  A    between atoms: N_1441  and  CA_1442
REMARK  822  A    between atoms: CA_1442  and  C_1443
REMARK  823  A    between atoms: CA_1442  and  CB_1445
REMARK  824  A    between atoms: CB_1445  and  CG_1446
REMARK  825  A    between atoms: CG_1446  and  CD_1447
REMARK  826  A    between atoms: CD_1447  and  NE_1448
REMARK  827  A    between atoms: N_1452  and  C_1453
REMARK  828  A    between atoms: C_1453  and  C_1454
REMARK  829  A    between atoms: C_1453  and  C_1456
REMARK  830  A    between atoms: C_1456  and  C_1457
REMARK  831  A    between atoms: C_1457  and  S_1458
REMARK  832  A    between atoms: N_1459  and  CA_1460
REMARK  833  A    between atoms: CA_1460  and  C_1461
REMARK  834  A    between atoms: CA_1460  and  CB_1463
REMARK  835  A    between atoms: CB_1463  and  CG_1464
REMARK  836  A    between atoms: N_1469  and  CA_1470
REMARK  837  A    between atoms: CA_1470  and  C_1471
REMARK  838  A    between atoms: CA_1470  and  CB_1473
REMARK  839  A    between atoms: CB_1473  and  CG_1474
REMARK  840  A    between atoms: N_1477  and  CA_1478
REMARK  841  A    between atoms: CA_1478  and  C_1479
REMARK  842  A    between atoms: CA_1478  and  CB_1481
REMARK  843  A    between atoms: CB_1481  and  CG_1482
REMARK  844  A    between atoms: CG_1482  and  CD_1483
REMARK  845  A    between atoms: N_1486  and  CA_1487
REMARK  846  A    between atoms: CA_1487  and  C_1488
REMARK  847  A    between atoms: CA_1487  and  CB_1490
REMARK  848  A    between atoms: CB_1490  and  CG_1491
REMARK  849  A    between atoms: CG_1491  and  CD_1492
REMARK  850  A    between atoms: CD_1492  and  CE_1493
REMARK  851  A    between atoms: CE_1493  and  NZ_1494
REMARK  852  A    between atoms: N_1495  and  CA_1496
REMARK  853  A    between atoms: CA_1496  and  C_1497
REMARK  854  A    between atoms: CA_1496  and  CB_1499
REMARK  855  A    between atoms: CB_1499  and  CG2_1500
REMARK  856  A    between atoms: CB_1499  and  CG1_1501
REMARK  857  A    between atoms: N_1502  and  CA_1503
REMARK  858  A    between atoms: CA_1503  and  C_1504
REMARK  859  A    between atoms: CA_1503  and  CB_1506
REMARK  860  A    between atoms: CB_1506  and  CG_1507
REMARK  861  A    between atoms: N_1510  and  CA_1511
REMARK  862  A    between atoms: CA_1511  and  C_1512
REMARK  863  A    between atoms: CA_1511  and  CB_1514
REMARK  864  A    between atoms: CB_1514  and  CG_1515
REMARK  865  A    between atoms: CG_1515  and  CD2_1516
REMARK  866  A    between atoms: CG_1515  and  CD1_1517
REMARK  867  A    between atoms: N_1518  and  CA_1519
REMARK  868  A    between atoms: CA_1519  and  C_1520
REMARK  869  A    between atoms: CA_1519  and  CB_1522
REMARK  870  A    between atoms: CB_1522  and  CG_1523
REMARK  871  A    between atoms: N_1532  and  CA_1533
REMARK  872  A    between atoms: CA_1533  and  C_1534
REMARK  873  A    between atoms: CA_1533  and  CB_1536
REMARK  874  A    between atoms: CB_1536  and  OG_1537
REMARK  875  A    between atoms: N_1538  and  CA_1539
REMARK  876  A    between atoms: CA_1539  and  C_1540
REMARK  877  A    between atoms: CA_1539  and  CB_1542
REMARK  878  A    between atoms: CB_1542  and  CG_1543
REMARK  879  A    between atoms: CG_1543  and  CD2_1544
REMARK  880  A    between atoms: CG_1543  and  CD1_1545
REMARK  881  A    between atoms: N_1546  and  CA_1547
REMARK  882  A    between atoms: CA_1547  and  C_1548
REMARK  883  A    between atoms: N_1550  and  CA_1551
REMARK  884  A    between atoms: CA_1551  and  C_1552
REMARK  885  A    between atoms: CA_1551  and  CB_1554
REMARK  886  A    between atoms: CB_1554  and  CG2_1555
REMARK  887  A    between atoms: CB_1554  and  CG1_1556
REMARK  888  A    between atoms: N_1557  and  CA_1558
REMARK  889  A    between atoms: CA_1558  and  C_1559
REMARK  890  A    between atoms: CA_1558  and  CB_1561
REMARK  891  A    between atoms: CB_1561  and  CG_1562
REMARK  892  A    between atoms: CG_1562  and  CD1_1563
REMARK  893  A    between atoms: CG_1562  and  CD2_1564
REMARK  894  A    between atoms: N_1565  and  CA_1566
REMARK  895  A    between atoms: CA_1566  and  C_1567
REMARK  896  A    between atoms: CA_1566  and  CB_1569
REMARK  897  A    between atoms: CB_1569  and  SG_1570
REMARK  898  A    between atoms: N_1571  and  CA_1572
REMARK  899  A    between atoms: CA_1572  and  C_1573
REMARK  900  A    between atoms: CA_1572  and  CB_1575
REMARK  901  A    between atoms: CB_1575  and  CG_1576
REMARK  902  A    between atoms: CZ_1581  and  OH_1582
REMARK  903  A    between atoms: N_1583  and  CA_1584
REMARK  904  A    between atoms: CA_1584  and  C_1585
REMARK  905  A    between atoms: CA_1584  and  CB_1587
REMARK  906  A    between atoms: CB_1587  and  CG_1588
REMARK  907  A    between atoms: CG_1588  and  CD_1589
REMARK  908  A    between atoms: N_1592  and  CA_1593
REMARK  909  A    between atoms: CA_1593  and  C_1594
REMARK  910  A    between atoms: CA_1593  and  CB_1596
REMARK  911  A    between atoms: CB_1596  and  CG_1597
REMARK  912  A    between atoms: N_1603  and  CA_1604
REMARK  913  A    between atoms: CA_1604  and  C_1605
REMARK  914  A    between atoms: CA_1604  and  CB_1607
REMARK  915  A    between atoms: CB_1607  and  CG_1608
REMARK  916  A    between atoms: CG_1608  and  CD1_1609
REMARK  917  A    between atoms: CG_1608  and  CD2_1610
REMARK  918  A    between atoms: N_1611  and  CA_1612
REMARK  919  A    between atoms: CA_1612  and  C_1613
REMARK  920  A    between atoms: CA_1612  and  CB_1615
REMARK  921  A    between atoms: CB_1615  and  CG2_1616
REMARK  922  A    between atoms: CB_1615  and  CG1_1617
REMARK  923  A    between atoms: N_1618  and  CA_1619
REMARK  924  A    between atoms: CA_1619  and  C_1620
REMARK  925  A    between atoms: N_1622  and  C_1623
REMARK  926  A    between atoms: C_1623  and  C_1624
REMARK  927  A    between atoms: C_1623  and  C_1626
REMARK  928  A    between atoms: C_1626  and  C_1627
REMARK  929  A    between atoms: C_1627  and  C_1628
REMARK  930  A    between atoms: CA_1630  and  C_1631
REMARK  931  A    between atoms: CA_1637  and  C_1638
REMARK  932  A    between atoms: N_1643  and  CA_1644
REMARK  933  A    between atoms: CA_1644  and  C_1645
REMARK  934  A    between atoms: CA_1644  and  CB_1647
REMARK  935  A    between atoms: CB_1647  and  CG_1648
REMARK  936  A    between atoms: N_1654  and  CA_1655
REMARK  937  A    between atoms: CA_1655  and  C_1656
REMARK  938  A    between atoms: CA_1655  and  CB_1658
REMARK  939  A    between atoms: CB_1658  and  CG_1659
REMARK  940  A    between atoms: CG_1659  and  CD_1660
REMARK  941  A    between atoms: N_1663  and  CA_1664
REMARK  942  A    between atoms: CA_1664  and  C_1665
REMARK  943  A    between atoms: CA_1664  and  CB_1667
REMARK  944  A    between atoms: N_1668  and  CA_1669
REMARK  945  A    between atoms: CA_1669  and  C_1670
REMARK  946  A    between atoms: CA_1669  and  CB_1672
REMARK  947  A    between atoms: CB_1672  and  CG_1673
REMARK  948  A    between atoms: N_1676  and  CA_1677
REMARK  949  A    between atoms: CA_1677  and  C_1678
REMARK  950  A    between atoms: CA_1677  and  CB_1680
REMARK  951  A    between atoms: CB_1680  and  OG1_1681
REMARK  952  A    between atoms: CB_1680  and  CG2_1682
REMARK  953  A    between atoms: N_1683  and  CA_1684
REMARK  954  A    between atoms: CA_1684  and  C_1685
REMARK  955  A    between atoms: CA_1684  and  CB_1687
REMARK  956  A    between atoms: CB_1687  and  CG_1688
REMARK  957  A    between atoms: CZ_1693  and  OH_1694
REMARK  958  A    between atoms: N_1695  and  CA_1696
REMARK  959  A    between atoms: CA_1696  and  C_1697
REMARK  960  A    between atoms: CA_1696  and  CB_1699
REMARK  961  A    between atoms: CB_1699  and  CG_1700
REMARK  962  A    between atoms: CG_1700  and  CD_1701
REMARK  963  A    between atoms: N_1704  and  CA_1705
REMARK  964  A    between atoms: CA_1705  and  C_1706
REMARK  965  A    between atoms: CA_1705  and  CB_1708
REMARK  966  A    between atoms: CB_1708  and  CG_1709
REMARK  967  A    between atoms: CG_1709  and  CD_1710
REMARK  968  A    between atoms: N_1713  and  CA_1714
REMARK  969  A    between atoms: CA_1714  and  C_1715
REMARK  970  A    between atoms: CA_1714  and  CB_1717
REMARK  971  A    between atoms: CB_1717  and  OG1_1718
REMARK  972  A    between atoms: CB_1717  and  CG2_1719
REMARK  973  A    between atoms: N_1720  and  CA_1721
REMARK  974  A    between atoms: CA_1721  and  C_1722
REMARK  975  A    between atoms: CA_1721  and  CB_1724
REMARK  976  A    between atoms: CB_1724  and  CG_1725
REMARK  977  A    between atoms: CZ_1730  and  OH_1731
REMARK  978  A    between atoms: N_1732  and  CA_1733
REMARK  979  A    between atoms: CA_1733  and  C_1734
REMARK  980  A    between atoms: CA_1733  and  CB_1736
REMARK  981  A    between atoms: CB_1736  and  SG_1737
REMARK  982  A    between atoms: N_1738  and  C_1739
REMARK  983  A    between atoms: C_1739  and  C_1740
REMARK  984  A    between atoms: C_1739  and  C_1742
REMARK  985  A    between atoms: C_1742  and  C_1743
REMARK  986  A    between atoms: C_1743  and  C_1744
REMARK  987  A    between atoms: C_1744  and  N_1745
REMARK  988  A    between atoms: N_1746  and  CA_1747
REMARK  989  A    between atoms: CA_1747  and  C_1748
REMARK  990  A    between atoms: CA_1747  and  CB_1750
REMARK  991  A    between atoms: CB_1750  and  CG1_1751
REMARK  992  A    between atoms: CB_1750  and  CG2_1752
REMARK  993  A    between atoms: CG1_1751  and  CD1_1753
REMARK  994  A    between atoms: N_1754  and  C_1755
REMARK  995  A    between atoms: C_1755  and  C_1756
REMARK  996  A    between atoms: C_1755  and  C_1758
REMARK  997  A    between atoms: C_1758  and  O_1759
REMARK  998  A    between atoms: N_1760  and  C_1761
REMARK  999  A    between atoms: C_1761  and  C_1762
REMARK  1000  A    between atoms: C_1761  and  C_1764
REMARK  1001  A    between atoms: C_1764  and  C_1765
REMARK  1002  A    between atoms: C_1765  and  C_1766
REMARK  1003  A    between atoms: C_1766  and  N_1767
REMARK  1004  A    between atoms: N_1771  and  C_1772
REMARK  1005  A    between atoms: C_1772  and  C_1773
REMARK  1006  A    between atoms: C_1772  and  C_1775
REMARK  1007  A    between atoms: C_1775  and  C_1776
REMARK  1008  A    between atoms: C_1775  and  C_1777
REMARK  1009  A    between atoms: N_1778  and  C_1779
REMARK  1010  A    between atoms: C_1779  and  C_1780
REMARK  1011  A    between atoms: C_1779  and  C_1782
REMARK  1012  A    between atoms: C_1782  and  C_1783
REMARK  1013  A    between atoms: C_1783  and  C_1784
REMARK  1014  A    between atoms: N_1787  and  C_1788
REMARK  1015  A    between atoms: C_1788  and  C_1789
REMARK  1016  A    between atoms: C_1788  and  C_1791
REMARK  1017  A    between atoms: C_1791  and  C_1792
REMARK  1018  A    between atoms: N_1798  and  C_1799
REMARK  1019  A    between atoms: C_1799  and  C_1800
REMARK  1020  A    between atoms: C_1799  and  C_1802
REMARK  1021  A    between atoms: C_1802  and  O_1803
REMARK  1022  A    between atoms: C_1802  and  C_1804
REMARK  1023  A    between atoms: N_1805  and  C_1806
REMARK  1024  A    between atoms: C_1806  and  C_1807
REMARK  1025  A    between atoms: C_1806  and  C_1809
REMARK  1026  A    between atoms: C_1809  and  C_1810
REMARK  1027  A    between atoms: C_1817  and  C_1818
REMARK  1028  A    between atoms: N_1823  and  C_1824
REMARK  1029  A    between atoms: C_1824  and  C_1825
REMARK  1030  A    between atoms: C_1824  and  C_1827
REMARK  1031  A    between atoms: C_1827  and  C_1828
REMARK  1032  A    between atoms: N_1831  and  C_1832
REMARK  1033  A    between atoms: C_1832  and  C_1833
REMARK  1034  A    between atoms: C_1832  and  C_1835
REMARK  1035  A    between atoms: C_1835  and  C_1836
REMARK  1036  A    between atoms: N_1842  and  C_1843
REMARK  1037  A    between atoms: C_1843  and  C_1844
REMARK  1038  A    between atoms: C_1843  and  C_1846
REMARK  1039  A    between atoms: C_1846  and  C_1847
REMARK  1040  A    between atoms: C_1846  and  C_1848
REMARK  1041  A    between atoms: N_1849  and  C_1850
REMARK  1042  A    between atoms: C_1850  and  C_1851
REMARK  1043  A    between atoms: C_1850  and  C_1853
REMARK  1044  A    between atoms: C_1853  and  O_1854
REMARK  1045  A    between atoms: C_1853  and  C_1855
REMARK  1046  A    between atoms: N_1856  and  C_1857
REMARK  1047  A    between atoms: C_1858  and  C_1859
REMARK  1048  A    between atoms: C_1858  and  C_1861
REMARK  1049  A    between atoms: C_1862  and  C_1863
REMARK  1050  A    between atoms: C_1862  and  C_1864
REMARK  1051  A    between atoms: C_1863  and  C_1865
REMARK  1052  A    between atoms: N_1871  and  C_1872
REMARK  1053  A    between atoms: C_1872  and  C_1873
REMARK  1054  A    between atoms: N_1875  and  CA_1876
REMARK  1055  A    between atoms: CA_1876  and  C_1877
REMARK  1056  A    between atoms: CA_1876  and  CB_1879
REMARK  1057  A    between atoms: N_1880  and  CA_1881
REMARK  1058  A    between atoms: CA_1881  and  C_1882
REMARK  1059  A    between atoms: CA_1881  and  CB_1884
REMARK  1060  A    between atoms: CB_1884  and  CG_1885
REMARK  1061  A    between atoms: CG_1885  and  CD_1886
REMARK  1062  A    between atoms: CD_1886  and  NE_1887
REMARK  1063  A    between atoms: N_1891  and  CA_1892
REMARK  1064  A    between atoms: CA_1892  and  C_1893
REMARK  1065  A    between atoms: CA_1892  and  CB_1895
REMARK  1066  A    between atoms: CB_1895  and  CG_1896
REMARK  1067  A    between atoms: N_1899  and  CA_1900
REMARK  1068  A    between atoms: CA_1900  and  C_1901
REMARK  1069  A    between atoms: CA_1900  and  CB_1903
REMARK  1070  A    between atoms: CB_1903  and  CG_1904
REMARK  1071  A    between atoms: CG_1904  and  CD1_1905
REMARK  1072  A    between atoms: CG_1904  and  CD2_1906
REMARK  1073  A    between atoms: N_1907  and  CA_1908
REMARK  1074  A    between atoms: CA_1908  and  C_1909
REMARK  1075  A    between atoms: CA_1908  and  CB_1911
REMARK  1076  A    between atoms: CB_1911  and  CG1_1912
REMARK  1077  A    between atoms: CB_1911  and  CG2_1913
REMARK  1078  A    between atoms: CG1_1912  and  CD1_1914
REMARK  1079  A    between atoms: N_1915  and  CA_1916
REMARK  1080  A    between atoms: CA_1916  and  C_1917
REMARK  1081  A    between atoms: CA_1916  and  CB_1919
REMARK  1082  A    between atoms: CB_1919  and  OG_1920
REMARK  1083  A    between atoms: N_1921  and  CA_1922
REMARK  1084  A    between atoms: CA_1922  and  C_1923
REMARK  1085  A    between atoms: CA_1922  and  CB_1925
REMARK  1086  A    between atoms: CB_1925  and  CG_1926
REMARK  1087  A    between atoms: CG_1926  and  CD_1927
REMARK  1088  A    between atoms: CD_1927  and  NE_1928
REMARK  1089  A    between atoms: N_1932  and  CA_1933
REMARK  1090  A    between atoms: CA_1933  and  C_1934
REMARK  1091  A    between atoms: CA_1933  and  CB_1936
REMARK  1092  A    between atoms: CB_1936  and  CG_1937
REMARK  1093  A    between atoms: CG_1937  and  CD2_1938
REMARK  1094  A    between atoms: CG_1937  and  CD1_1939
REMARK  1095  A    between atoms: N_1940  and  CA_1941
REMARK  1096  A    between atoms: CA_1941  and  C_1942
REMARK  1097  A    between atoms: CA_1941  and  CB_1944
REMARK  1098  A    between atoms: CB_1944  and  CG_1945
REMARK  1099  A    between atoms: CG_1945  and  CD2_1946
REMARK  1100  A    between atoms: CG_1945  and  CD1_1947
REMARK  1101  A    between atoms: N_1948  and  CA_1949
REMARK  1102  A    between atoms: CA_1949  and  C_1950
REMARK  1103  A    between atoms: CA_1949  and  CB_1952
REMARK  1104  A    between atoms: CB_1952  and  CG_1953
REMARK  1105  A    between atoms: CG_1953  and  CD_1954
REMARK  1106  A    between atoms: CD_1954  and  CE_1955
REMARK  1107  A    between atoms: CE_1955  and  NZ_1956
REMARK  1108  A    between atoms: N_1957  and  CA_1958
REMARK  1109  A    between atoms: CA_1958  and  C_1959
REMARK  1110  A    between atoms: CA_1958  and  CB_1961
REMARK  1111  A    between atoms: CB_1961  and  CG_1962
REMARK  1112  A    between atoms: N_1967  and  CA_1968
REMARK  1113  A    between atoms: CA_1968  and  C_1969
REMARK  1114  A    between atoms: CA_1968  and  CB_1971
REMARK  1115  A    between atoms: CB_1971  and  CG_1972
REMARK  1116  A    between atoms: CA_1976  and  C_1977
REMARK  1117  A    between atoms: N_1982  and  C_1983
REMARK  1118  A    between atoms: C_1983  and  C_1984
REMARK  1119  A    between atoms: C_1983  and  C_1986
REMARK  1120  A    between atoms: C_1986  and  O_1987
REMARK  1121  A    between atoms: N_1988  and  C_1989
REMARK  1122  A    between atoms: C_1989  and  C_1990
REMARK  1123  A    between atoms: C_1989  and  C_1992
REMARK  1124  A    between atoms: C_1992  and  C_1993
REMARK  1125  A    between atoms: C_1993  and  C_1994
REMARK  1126  A    between atoms: N_1997  and  C_1998
REMARK  1127  A    between atoms: C_1998  and  C_1999
REMARK  1128  A    between atoms: C_1998  and  C_2001
REMARK  1129  A    between atoms: C_2001  and  C_2002
REMARK  1130  A    between atoms: C_2002  and  C_2003
REMARK  1131  A    between atoms: C_2003  and  N_2004
REMARK  1132  A    between atoms: C_2009  and  C_2010
REMARK  1133  A    between atoms: N_2015  and  C_2017
REMARK  1134  A    between atoms: C_2016  and  C_2018
REMARK  1135  A    between atoms: C_2016  and  C_2021
REMARK  1136  A    between atoms: C_2021  and  C_2022
REMARK  1137  A    between atoms: C_2022  and  C_2023
REMARK  1138  A    between atoms: C_2023  and  S_2024
REMARK  1139  A    between atoms: C_2023  and  S_2025
REMARK  1140  A    between atoms: S_2024  and  C_2026
REMARK  1141  A    between atoms: S_2025  and  C_2027
REMARK  1142  A    between atoms: N_2028  and  CA_2029
REMARK  1143  A    between atoms: CA_2029  and  C_2030
REMARK  1144  A    between atoms: CA_2029  and  CB_2032
REMARK  1145  A    between atoms: CB_2032  and  CG_2033
REMARK  1146  A    between atoms: CG_2033  and  CD1_2034
REMARK  1147  A    between atoms: CG_2033  and  CD2_2035
REMARK  1148  A    between atoms: N_2036  and  CA_2037
REMARK  1149  A    between atoms: CA_2037  and  C_2038
REMARK  1150  A    between atoms: CA_2037  and  CB_2040
REMARK  1151  A    between atoms: N_2041  and  CA_2042
REMARK  1152  A    between atoms: CA_2042  and  C_2043
REMARK  1153  A    between atoms: CA_2042  and  CB_2045
REMARK  1154  A    between atoms: CB_2045  and  CG_2046
REMARK  1155  A    between atoms: CG_2046  and  CD_2047
REMARK  1156  A    between atoms: N_2050  and  CA_2051
REMARK  1157  A    between atoms: CA_2051  and  C_2052
REMARK  1158  A    between atoms: CA_2051  and  CB_2054
REMARK  1159  A    between atoms: CB_2054  and  CG2_2055
REMARK  1160  A    between atoms: CB_2054  and  CG1_2056
REMARK  1161  A    between atoms: N_2057  and  CA_2058
REMARK  1162  A    between atoms: CA_2058  and  C_2059
REMARK  1163  A    between atoms: CA_2058  and  CB_2061
REMARK  1164  A    between atoms: CB_2061  and  CG_2062
REMARK  1165  A    between atoms: CG_2062  and  CD1_2063
REMARK  1166  A    between atoms: CG_2062  and  CD2_2064
REMARK  1167  A    between atoms: N_2065  and  CA_2066
REMARK  1168  A    between atoms: CA_2066  and  C_2067
REMARK  1169  A    between atoms: CA_2066  and  CB_2069
REMARK  1170  A    between atoms: CB_2069  and  CG_2070
REMARK  1171  A    between atoms: CG_2070  and  CD_2071
REMARK  1172  A    between atoms: N_2074  and  CA_2075
REMARK  1173  A    between atoms: CA_2075  and  C_2076
REMARK  1174  A    between atoms: CA_2075  and  CB_2078
REMARK  1175  A    between atoms: CB_2078  and  CG_2079
REMARK  1176  A    between atoms: CA_2085  and  C_2086
REMARK  1177  A    between atoms: N_2091  and  CA_2092
REMARK  1178  A    between atoms: CA_2092  and  C_2093
REMARK  1179  A    between atoms: CA_2092  and  CB_2095
REMARK  1180  A    between atoms: CB_2095  and  CG_2096
REMARK  1181  A    between atoms: N_2105  and  CA_2106
REMARK  1182  A    between atoms: CA_2106  and  C_2107
REMARK  1183  A    between atoms: CA_2106  and  CB_2109
REMARK  1184  A    between atoms: CB_2109  and  CG1_2110
REMARK  1185  A    between atoms: CB_2109  and  CG2_2111
REMARK  1186  A    between atoms: CG1_2110  and  CD1_2112
REMARK  1187  A    between atoms: N_2113  and  CA_2114
REMARK  1188  A    between atoms: CA_2114  and  C_2115
REMARK  1189  A    between atoms: CA_2114  and  CB_2117
REMARK  1190  A    between atoms: CB_2117  and  OG1_2118
REMARK  1191  A    between atoms: CB_2117  and  CG2_2119
REMARK  1192  A    between atoms: N_2120  and  CA_2121
REMARK  1193  A    between atoms: CA_2121  and  C_2122
REMARK  1194  A    between atoms: CA_2121  and  CB_2124
REMARK  1195  A    between atoms: N_2125  and  CA_2126
REMARK  1196  A    between atoms: CA_2126  and  C_2127
REMARK  1197  A    between atoms: CA_2126  and  CB_2129
REMARK  1198  A    between atoms: CB_2129  and  CG_2130
REMARK  1199  A    between atoms: N_2133  and  CA_2134
REMARK  1200  A    between atoms: CA_2134  and  C_2135
REMARK  1201  A    between atoms: CA_2134  and  CB_2137
REMARK  1202  A    between atoms: CB_2137  and  OG_2138
REMARK  1203  A    between atoms: N_2139  and  CA_2140
REMARK  1204  A    between atoms: CA_2140  and  C_2141
REMARK  1205  A    between atoms: CA_2140  and  CB_2143
REMARK  1206  A    between atoms: CB_2143  and  OG_2144
REMARK  1207  A    between atoms: N_2145  and  C_2146
REMARK  1208  A    between atoms: C_2146  and  C_2147
REMARK  1209  A    between atoms: C_2146  and  C_2149
REMARK  1210  A    between atoms: C_2149  and  C_2150
REMARK  1211  A    between atoms: N_2151  and  CA_2152
REMARK  1212  A    between atoms: CA_2152  and  C_2153
REMARK  1213  A    between atoms: CA_2152  and  CB_2155
REMARK  1214  A    between atoms: CB_2155  and  OG_2156
REMARK  1215  A    between atoms: N_2157  and  CA_2158
REMARK  1216  A    between atoms: CA_2158  and  C_2159
REMARK  1217  A    between atoms: CA_2158  and  CB_2161
REMARK  1218  A    between atoms: CB_2161  and  CG_2162
REMARK  1219  A    between atoms: CG_2162  and  CD_2163
REMARK  1220  A    between atoms: CA_2167  and  C_2168
REMARK  1221  A    between atoms: CA_2174  and  C_2175
REMARK  1222  A    between atoms: N_2180  and  CA_2181
REMARK  1223  A    between atoms: CA_2181  and  C_2182
REMARK  1224  A    between atoms: CA_2181  and  CB_2184
REMARK  1225  A    between atoms: CB_2184  and  OG_2185
REMARK  1226  A    between atoms: N_2186  and  CA_2187
REMARK  1227  A    between atoms: CA_2187  and  C_2188
REMARK  1228  A    between atoms: CA_2187  and  CB_2190
REMARK  1229  A    between atoms: CB_2190  and  CG_2191
REMARK  1230  A    between atoms: N_2200  and  CA_2201
REMARK  1231  A    between atoms: CA_2201  and  C_2202
REMARK  1232  A    between atoms: CA_2201  and  CB_2204
REMARK  1233  A    between atoms: CB_2204  and  CG2_2205
REMARK  1234  A    between atoms: CB_2204  and  CG1_2206
REMARK  1235  A    between atoms: N_2207  and  CA_2208
REMARK  1236  A    between atoms: CA_2208  and  C_2209
REMARK  1237  A    between atoms: CA_2208  and  CB_2211
REMARK  1238  A    between atoms: CB_2211  and  OG1_2212
REMARK  1239  A    between atoms: CB_2211  and  CG2_2213
REMARK  1240  A    between atoms: N_2214  and  CA_2215
REMARK  1241  A    between atoms: CA_2215  and  C_2216
REMARK  1242  A    between atoms: CA_2215  and  CB_2218
REMARK  1243  A    between atoms: CB_2218  and  CG_2219
REMARK  1244  A    between atoms: CG_2219  and  CD_2220
REMARK  1245  A    between atoms: N_2223  and  CA_2224
REMARK  1246  A    between atoms: CA_2224  and  C_2225
REMARK  1247  A    between atoms: CA_2224  and  CB_2227
REMARK  1248  A    between atoms: CB_2227  and  CG_2228
REMARK  1249  A    between atoms: CG_2228  and  SD_2229
REMARK  1250  A    between atoms: SD_2229  and  CE_2230
REMARK  1251  A    between atoms: N_2231  and  CA_2232
REMARK  1252  A    between atoms: CA_2232  and  C_2233
REMARK  1253  A    between atoms: CA_2232  and  CB_2235
REMARK  1254  A    between atoms: CB_2235  and  CG_2236
REMARK  1255  A    between atoms: CG_2236  and  CD1_2237
REMARK  1256  A    between atoms: CG_2236  and  CD2_2238
REMARK  1257  A    between atoms: N_2239  and  CA_2240
REMARK  1258  A    between atoms: CA_2240  and  C_2241
REMARK  1259  A    between atoms: CA_2240  and  CB_2243
REMARK  1260  A    between atoms: CB_2243  and  CG_2244
REMARK  1261  A    between atoms: CG_2244  and  CD1_2245
REMARK  1262  A    between atoms: CG_2244  and  CD2_2246
REMARK  1263  A    between atoms: N_2247  and  CA_2248
REMARK  1264  A    between atoms: CA_2248  and  C_2249
REMARK  1265  A    between atoms: CA_2248  and  CB_2251
REMARK  1266  A    between atoms: CB_2251  and  CG_2252
REMARK  1267  A    between atoms: CG_2252  and  CD_2253
REMARK  1268  A    between atoms: N_2256  and  CA_2257
REMARK  1269  A    between atoms: CA_2257  and  C_2258
REMARK  1270  A    between atoms: CA_2257  and  CB_2260
REMARK  1271  A    between atoms: CB_2260  and  CG_2261
REMARK  1272  A    between atoms: CG_2261  and  CD_2262
REMARK  1273  A    between atoms: CD_2262  and  CE_2263
REMARK  1274  A    between atoms: CE_2263  and  NZ_2264
REMARK  1275  A    between atoms: N_2265  and  C_2266
REMARK  1276  A    between atoms: C_2266  and  C_2267
REMARK  1277  A    between atoms: C_2266  and  C_2269
REMARK  1278  A    between atoms: C_2269  and  C_2270
REMARK  1279  A    between atoms: N_2271  and  CA_2272
REMARK  1280  A    between atoms: CA_2272  and  C_2273
REMARK  1281  A    between atoms: CA_2272  and  CB_2275
REMARK  1282  A    between atoms: CB_2275  and  CG_2276
REMARK  1283  A    between atoms: CG_2276  and  CD2_2277
REMARK  1284  A    between atoms: CG_2276  and  CD1_2278
REMARK  1285  A    between atoms: N_2279  and  CA_2280
REMARK  1286  A    between atoms: CA_2280  and  C_2281
REMARK  1287  A    between atoms: CA_2280  and  CB_2283
REMARK  1288  A    between atoms: CB_2283  and  CG_2284
REMARK  1289  A    between atoms: N_2293  and  CA_2294
REMARK  1290  A    between atoms: CA_2294  and  C_2295
REMARK                            x       y       z     vdW  Elec       q    Type
REMARK                         _______ _______ _______ _____ _____    ______ ____
ROOT
ATOM      1  N   UNL     6     -54.555  31.819   5.312  0.00  0.00    +0.216 N 
ATOM      2  C   UNL     6     -53.541  30.812   5.180  0.00  0.00    +0.186 C 
ATOM      3  H   UNL     6     -55.120  31.627   6.139  0.00  0.00    +0.199 HD
ATOM      4  H   UNL     6     -55.151  31.812   4.484  0.00  0.00    +0.199 HD
ATOM      5  H   UNL     6     -54.115  32.734   5.406  0.00  0.00    +0.199 HD
ENDROOT
TORSDOF 0
REMARK  Name = /Users/wangyang/Desktop/Breast_cancer_brain_metastasis/wang_Gene/AIDD/15_Protein_ligand_docking/data_7ztl/protein.pdb
REMARK  1290 active torsions:
REMARK  status: ('A' for Active; 'I' for Inactive)
REMARK    1  A    between atoms: N_1  and  CA_2
REMARK    2  A    between atoms: CA_2  and  C_3
REMARK    3  A    between atoms: N_5  and  CA_6
REMARK    4  A    between atoms: CA_6  and  C_7
REMARK    5  A    between atoms: CA_6  and  CB_9
REMARK    6  A    between atoms: N_10  and  CA_11
REMARK    7  A    between atoms: CA_11  and  C_12
REMARK    8  A    between atoms: CA_11  and  CB_14
REMARK    9  A    between atoms: CB_14  and  CG_15
REMARK   10  A    between atoms: N_24  and  CA_25
REMARK   11  A    between atoms: CA_25  and  C_26
REMARK   12  A    between atoms: CA_25  and  CB_28
REMARK   13  A    between atoms: N_29  and  CA_30
REMARK   14  A    between atoms: CA_30  and  C_31
REMARK   15  A    between atoms: CA_30  and  CB_33
REMARK   16  A    between atoms: CB_33  and  CG_34
REMARK   17  A    between atoms: CG_34  and  CD1_35
REMARK   18  A    between atoms: CG_34  and  CD2_36
REMARK   19  A    between atoms: N_37  and  CA_38
REMARK   20  A    between atoms: CA_38  and  C_39
REMARK   21  A    between atoms: CA_38  and  CB_41
REMARK   22  A    between atoms: CB_41  and  CG_42
REMARK   23  A    between atoms: CG_42  and  CD_43
REMARK   24  A    between atoms: N_46  and  CA_47
REMARK   25  A    between atoms: CA_47  and  C_48
REMARK   26  A    between atoms: CA_47  and  CB_50
REMARK   27  A    between atoms: CB_50  and  CG_51
REMARK   28  A    between atoms: N_54  and  CA_55
REMARK   29  A    between atoms: CA_55  and  C_56
REMARK   30  A    between atoms: CA_55  and  CB_58
REMARK   31  A    between atoms: CB_58  and  CG_59
REMARK   32  A    between atoms: N_65  and  CA_66
REMARK   33  A    between atoms: CA_66  and  C_67
REMARK   34  A    between atoms: CA_66  and  CB_69
REMARK   35  A    between atoms: CB_69  and  CG_70
REMARK   36  A    between atoms: CG_70  and  CD_71
REMARK   37  A    between atoms: N_74  and  CA_75
REMARK   38  A    between atoms: CA_75  and  C_76
REMARK   39  A    between atoms: CA_75  and  CB_78
REMARK   40  A    between atoms: CB_78  and  CG1_79
REMARK   41  A    between atoms: CB_78  and  CG2_80
REMARK   42  A    between atoms: CG1_79  and  CD1_81
REMARK   43  A    between atoms: N_82  and  CA_83
REMARK   44  A    between atoms: CA_83  and  C_84
REMARK   45  A    between atoms: N_86  and  CA_87
REMARK   46  A    between atoms: CA_87  and  C_88
REMARK   47  A    between atoms: CA_87  and  CB_90
REMARK   48  A    between atoms: CB_90  and  CG_91
REMARK   49  A    between atoms: CG_91  and  CD_92
REMARK   50  A    between atoms: CD_92  and  NE_93
REMARK   51  A    between atoms: CA_98  and  C_99
REMARK   52  A    between atoms: N_104  and  CA_105
REMARK   53  A    between atoms: CA_105  and  C_106
REMARK   54  A    between atoms: CA_105  and  CB_108
REMARK   55  A    between atoms: CB_108  and  CG_109
REMARK   56  A    between atoms: CG_109  and  CD1_110
REMARK   57  A    between atoms: CG_109  and  CD2_111
REMARK   58  A    between atoms: N_112  and  CA_113
REMARK   59  A    between atoms: CA_113  and  C_114
REMARK   60  A    between atoms: N_116  and  C_117
REMARK   61  A    between atoms: C_117  and  C_118
REMARK   62  A    between atoms: C_117  and  C_120
REMARK   63  A    between atoms: C_120  and  C_121
REMARK   64  A    between atoms: C_121  and  C_122
REMARK   65  A    between atoms: N_123  and  CA_124
REMARK   66  A    between atoms: CA_124  and  C_125
REMARK   67  A    between atoms: N_127  and  CA_128
REMARK   68  A    between atoms: CA_128  and  C_129
REMARK   69  A    between atoms: CA_128  and  CB_131
REMARK   70  A    between atoms: CB_131  and  CG_132
REMARK   71  A    between atoms: CG_132  and  CD_133
REMARK   72  A    between atoms: CD_133  and  CE_134
REMARK   73  A    between atoms: CE_134  and  NZ_135
REMARK   74  A    between atoms: N_136  and  CA_137
REMARK   75  A    between atoms: CA_137  and  C_138
REMARK   76  A    between atoms: CA_137  and  CB_140
REMARK   77  A    between atoms: CB_140  and  CG_141
REMARK   78  A    between atoms: N_147  and  CA_148
REMARK   79  A    between atoms: CA_148  and  C_149
REMARK   80  A    between atoms: N_151  and  CA_152
REMARK   81  A    between atoms: CA_152  and  C_153
REMARK   82  A    between atoms: CA_152  and  CB_155
REMARK   83  A    between atoms: CB_155  and  CG_156
REMARK   84  A    between atoms: N_159  and  CA_160
REMARK   85  A    between atoms: CA_160  and  C_161
REMARK   86  A    between atoms: CA_160  and  CB_163
REMARK   87  A    between atoms: CB_163  and  CG1_164
REMARK   88  A    between atoms: CB_163  and  CG2_165
REMARK   89  A    between atoms: N_166  and  CA_167
REMARK   90  A    between atoms: CA_167  and  C_168
REMARK   91  A    between atoms: CA_167  and  CB_170
REMARK   92  A    between atoms: CB_170  and  CG_171
REMARK   93  A    between atoms: CZ_176  and  OH_177
REMARK   94  A    between atoms: N_178  and  CA_179
REMARK   95  A    between atoms: CA_179  and  C_180
REMARK   96  A    between atoms: CA_179  and  CB_182
REMARK   97  A    between atoms: CB_182  and  CG_183
REMARK   98  A    between atoms: CG_183  and  CD1_184
REMARK   99  A    between atoms: CG_183  and  CD2_185
REMARK  100  A    between atoms: N_186  and  CA_187
REMARK  101  A    between atoms: CA_187  and  C_188
REMARK  102  A    between atoms: CA_187  and  CB_190
REMARK  103  A    between atoms: N_191  and  CA_192
REMARK  104  A    between atoms: CA_192  and  C_193
REMARK  105  A    between atoms: CA_192  and  CB_195
REMARK  106  A    between atoms: CB_195  and  CG_196
REMARK  107  A    between atoms: CG_196  and  CD_197
REMARK  108  A    between atoms: CD_197  and  NE_198
REMARK  109  A    between atoms: N_202  and  CA_203
REMARK  110  A    between atoms: CA_203  and  C_204
REMARK  111  A    between atoms: CA_203  and  CB_206
REMARK  112  A    between atoms: CB_206  and  CG_207
REMARK  113  A    between atoms: CG_207  and  CD_208
REMARK  114  A    between atoms: N_211  and  CA_212
REMARK  115  A    between atoms: CA_212  and  C_213
REMARK  116  A    between atoms: CA_212  and  CB_215
REMARK  117  A    between atoms: CB_215  and  CG_216
REMARK  118  A    between atoms: CG_216  and  CD_217
REMARK  119  A    between atoms: CD_217  and  CE_218
REMARK  120  A    between atoms: CE_218  and  NZ_219
REMARK  121  A    between atoms: N_220  and  CA_221
REMARK  122  A    between atoms: CA_221  and  C_222
REMARK  123  A    between atoms: CA_221  and  CB_224
REMARK  124  A    between atoms: N_225  and  CA_226
REMARK  125  A    between atoms: CA_226  and  C_227
REMARK  126  A    between atoms: CA_226  and  CB_229
REMARK  127  A    between atoms: CB_229  and  OG_230
REMARK  128  A    between atoms: N_231  and  CA_232
REMARK  129  A    between atoms: CA_232  and  C_233
REMARK  130  A    between atoms: CA_232  and  CB_235
REMARK  131  A    between atoms: CB_235  and  CG_236
REMARK  132  A    between atoms: CG_236  and  CD_237
REMARK  133  A    between atoms: CD_237  and  CE_238
REMARK  134  A    between atoms: CE_238  and  NZ_239
REMARK  135  A    between atoms: N_240  and  CA_241
REMARK  136  A    between atoms: CA_241  and  C_242
REMARK  137  A    between atoms: CA_241  and  CB_244
REMARK  138  A    between atoms: CB_244  and  CG_245
REMARK  139  A    between atoms: N_251  and  CA_252
REMARK  140  A    between atoms: CA_252  and  C_253
REMARK  141  A    between atoms: CA_252  and  CB_255
REMARK  142  A    between atoms: CB_255  and  CG1_256
REMARK  143  A    between atoms: CB_255  and  CG2_257
REMARK  144  A    between atoms: CG1_256  and  CD1_258
REMARK  145  A    between atoms: N_259  and  CA_260
REMARK  146  A    between atoms: CA_260  and  C_261
REMARK  147  A    between atoms: CA_260  and  CB_263
REMARK  148  A    between atoms: CB_263  and  CG_264
REMARK  149  A    between atoms: CG_264  and  CD1_265
REMARK  150  A    between atoms: CG_264  and  CD2_266
REMARK  151  A    between atoms: N_267  and  CA_268
REMARK  152  A    between atoms: CA_268  and  C_269
REMARK  153  A    between atoms: CA_268  and  CB_271
REMARK  154  A    between atoms: N_272  and  CA_273
REMARK  155  A    between atoms: CA_273  and  C_274
REMARK  156  A    between atoms: CA_273  and  CB_276
REMARK  157  A    between atoms: CB_276  and  CG_277
REMARK  158  A    between atoms: CG_277  and  CD2_278
REMARK  159  A    between atoms: CG_277  and  CD1_279
REMARK  160  A    between atoms: N_280  and  CA_281
REMARK  161  A    between atoms: CA_281  and  C_282
REMARK  162  A    between atoms: CA_281  and  CB_284
REMARK  163  A    between atoms: CB_284  and  CG_285
REMARK  164  A    between atoms: CG_285  and  CD_286
REMARK  165  A    between atoms: CD_286  and  CE_287
REMARK  166  A    between atoms: CE_287  and  NZ_288
REMARK  167  A    between atoms: N_289  and  CA_290
REMARK  168  A    between atoms: CA_290  and  C_291
REMARK  169  A    between atoms: CA_290  and  CB_293
REMARK  170  A    between atoms: CB_293  and  CG2_294
REMARK  171  A    between atoms: CB_293  and  CG1_295
REMARK  172  A    between atoms: N_296  and  CA_297
REMARK  173  A    between atoms: CA_297  and  C_298
REMARK  174  A    between atoms: CA_297  and  CB_300
REMARK  175  A    between atoms: CB_300  and  CG_301
REMARK  176  A    between atoms: CG_301  and  CD1_302
REMARK  177  A    between atoms: CG_301  and  CD2_303
REMARK  178  A    between atoms: N_304  and  CA_305
REMARK  179  A    between atoms: CA_305  and  C_306
REMARK  180  A    between atoms: CA_305  and  CB_308
REMARK  181  A    between atoms: CB_308  and  CG_309
REMARK  182  A    between atoms: N_315  and  CA_316
REMARK  183  A    between atoms: CA_316  and  C_317
REMARK  184  A    between atoms: CA_316  and  CB_319
REMARK  185  A    between atoms: CB_319  and  CG_320
REMARK  186  A    between atoms: CG_320  and  CD_321
REMARK  187  A    between atoms: CD_321  and  CE_322
REMARK  188  A    between atoms: CE_322  and  NZ_323
REMARK  189  A    between atoms: N_324  and  CA_325
REMARK  190  A    between atoms: CA_325  and  C_326
REMARK  191  A    between atoms: CA_325  and  CB_328
REMARK  192  A    between atoms: N_329  and  CA_330
REMARK  193  A    between atoms: CA_330  and  C_331
REMARK  194  A    between atoms: CA_330  and  CB_333
REMARK  195  A    between atoms: CB_333  and  CG_334
REMARK  196  A    between atoms: CG_334  and  CD_335
REMARK  197  A    between atoms: N_338  and  CA_339
REMARK  198  A    between atoms: CA_339  and  C_340
REMARK  199  A    between atoms: CA_339  and  CB_342
REMARK  200  A    between atoms: CB_342  and  CG_343
REMARK  201  A    between atoms: CG_343  and  CD1_344
REMARK  202  A    between atoms: CG_343  and  CD2_345
REMARK  203  A    between atoms: N_346  and  CA_347
REMARK  204  A    between atoms: CA_347  and  C_348
REMARK  205  A    between atoms: CA_347  and  CB_350
REMARK  206  A    between atoms: CB_350  and  CG_351
REMARK  207  A    between atoms: CG_351  and  CD_352
REMARK  208  A    between atoms: N_355  and  C_356
REMARK  209  A    between atoms: C_356  and  C_357
REMARK  210  A    between atoms: C_356  and  C_359
REMARK  211  A    between atoms: C_359  and  C_360
REMARK  212  A    between atoms: N_361  and  CA_362
REMARK  213  A    between atoms: CA_362  and  C_363
REMARK  214  A    between atoms: CA_362  and  CB_365
REMARK  215  A    between atoms: N_366  and  CA_367
REMARK  216  A    between atoms: CA_367  and  C_368
REMARK  217  A    between atoms: N_370  and  CA_371
REMARK  218  A    between atoms: CA_371  and  C_372
REMARK  219  A    between atoms: CA_371  and  CB_374
REMARK  220  A    between atoms: CB_374  and  CG2_375
REMARK  221  A    between atoms: CB_374  and  CG1_376
REMARK  222  A    between atoms: N_377  and  CA_378
REMARK  223  A    between atoms: CA_378  and  C_379
REMARK  224  A    between atoms: CA_378  and  CB_381
REMARK  225  A    between atoms: CB_381  and  CG_382
REMARK  226  A    between atoms: CG_382  and  CD_383
REMARK  227  A    between atoms: N_386  and  CA_387
REMARK  228  A    between atoms: CA_387  and  C_388
REMARK  229  A    between atoms: CA_387  and  CB_390
REMARK  230  A    between atoms: CB_390  and  CG_391
REMARK  231  A    between atoms: N_396  and  CA_397
REMARK  232  A    between atoms: CA_397  and  C_398
REMARK  233  A    between atoms: CA_397  and  CB_400
REMARK  234  A    between atoms: CB_400  and  CG_401
REMARK  235  A    between atoms: CG_401  and  CD_402
REMARK  236  A    between atoms: N_405  and  CA_406
REMARK  237  A    between atoms: CA_406  and  C_407
REMARK  238  A    between atoms: CA_406  and  CB_409
REMARK  239  A    between atoms: CB_409  and  CG_410
REMARK  240  A    between atoms: CG_410  and  CD2_411
REMARK  241  A    between atoms: CG_410  and  CD1_412
REMARK  242  A    between atoms: N_413  and  CA_414
REMARK  243  A    between atoms: CA_414  and  C_415
REMARK  244  A    between atoms: CA_414  and  CB_417
REMARK  245  A    between atoms: CB_417  and  CG_418
REMARK  246  A    between atoms: CG_418  and  CD_419
REMARK  247  A    between atoms: CD_419  and  NE_420
REMARK  248  A    between atoms: N_424  and  CA_425
REMARK  249  A    between atoms: CA_425  and  C_426
REMARK  250  A    between atoms: CA_425  and  CB_428
REMARK  251  A    between atoms: CB_428  and  CG_429
REMARK  252  A    between atoms: CG_429  and  CD_430
REMARK  253  A    between atoms: CD_430  and  NE_431
REMARK  254  A    between atoms: N_435  and  CA_436
REMARK  255  A    between atoms: CA_436  and  C_437
REMARK  256  A    between atoms: CA_436  and  CB_439
REMARK  257  A    between atoms: CB_439  and  CG_440
REMARK  258  A    between atoms: CG_440  and  CD_441
REMARK  259  A    between atoms: N_444  and  CA_445
REMARK  260  A    between atoms: CA_445  and  C_446
REMARK  261  A    between atoms: CA_445  and  CB_448
REMARK  262  A    between atoms: CB_448  and  CG1_449
REMARK  263  A    between atoms: CB_448  and  CG2_450
REMARK  264  A    between atoms: N_451  and  C_452
REMARK  265  A    between atoms: C_452  and  C_453
REMARK  266  A    between atoms: C_452  and  C_455
REMARK  267  A    between atoms: C_455  and  C_456
REMARK  268  A    between atoms: N_457  and  CA_458
REMARK  269  A    between atoms: CA_458  and  C_459
REMARK  270  A    between atoms: CA_458  and  CB_461
REMARK  271  A    between atoms: CB_461  and  CG1_462
REMARK  272  A    between atoms: CB_461  and  CG2_463
REMARK  273  A    between atoms: CG1_462  and  CD1_464
REMARK  274  A    between atoms: N_465  and  CA_466
REMARK  275  A    between atoms: CA_466  and  C_467
REMARK  276  A    between atoms: CA_466  and  CB_469
REMARK  277  A    between atoms: CB_469  and  CG_470
REMARK  278  A    between atoms: CG_470  and  CD_471
REMARK  279  A    between atoms: N_474  and  C_475
REMARK  280  A    between atoms: C_475  and  C_476
REMARK  281  A    between atoms: C_475  and  C_478
REMARK  282  A    between atoms: C_478  and  O_479
REMARK  283  A    between atoms: N_480  and  C_481
REMARK  284  A    between atoms: C_481  and  C_482
REMARK  285  A    between atoms: C_481  and  C_484
REMARK  286  A    between atoms: C_484  and  C_485
REMARK  287  A    between atoms: N_490  and  C_491
REMARK  288  A    between atoms: C_491  and  C_492
REMARK  289  A    between atoms: C_491  and  C_494
REMARK  290  A    between atoms: C_494  and  C_495
REMARK  291  A    between atoms: C_495  and  C_496
REMARK  292  A    between atoms: C_495  and  C_497
REMARK  293  A    between atoms: N_498  and  C_499
REMARK  294  A    between atoms: C_499  and  C_500
REMARK  295  A    between atoms: C_499  and  C_502
REMARK  296  A    between atoms: C_502  and  C_503
REMARK  297  A    between atoms: C_503  and  C_504
REMARK  298  A    between atoms: C_504  and  N_505
REMARK  299  A    between atoms: N_509  and  C_510
REMARK  300  A    between atoms: C_510  and  C_511
REMARK  301  A    between atoms: C_510  and  C_513
REMARK  302  A    between atoms: C_513  and  C_514
REMARK  303  A    between atoms: C_520  and  C_521
REMARK  304  A    between atoms: N_526  and  C_527
REMARK  305  A    between atoms: C_527  and  C_528
REMARK  306  A    between atoms: C_527  and  C_530
REMARK  307  A    between atoms: C_530  and  C_531
REMARK  308  A    between atoms: N_534  and  C_535
REMARK  309  A    between atoms: C_535  and  C_536
REMARK  310  A    between atoms: C_535  and  C_538
REMARK  311  A    between atoms: C_538  and  C_539
REMARK  312  A    between atoms: C_538  and  C_540
REMARK  313  A    between atoms: C_539  and  C_541
REMARK  314  A    between atoms: N_542  and  C_543
REMARK  315  A    between atoms: C_543  and  C_544
REMARK  316  A    between atoms: C_543  and  C_546
REMARK  317  A    between atoms: C_546  and  C_547
REMARK  318  A    between atoms: C_547  and  C_548
REMARK  319  A    between atoms: C_547  and  C_549
REMARK  320  A    between atoms: N_550  and  C_551
REMARK  321  A    between atoms: C_551  and  C_552
REMARK  322  A    between atoms: C_551  and  C_554
REMARK  323  A    between atoms: C_554  and  C_555
REMARK  324  A    between atoms: C_555  and  C_556
REMARK  325  A    between atoms: C_556  and  N_557
REMARK  326  A    between atoms: N_561  and  C_562
REMARK  327  A    between atoms: C_562  and  C_567
REMARK  328  A    between atoms: C_563  and  C_564
REMARK  329  A    between atoms: C_568  and  C_569
REMARK  330  A    between atoms: C_568  and  C_571
REMARK  331  A    between atoms: C_569  and  C_572
REMARK  332  A    between atoms: C_569  and  C_573
REMARK  333  A    between atoms: C_570  and  C_573
REMARK  334  A    between atoms: N_574  and  CA_575
REMARK  335  A    between atoms: CA_575  and  C_576
REMARK  336  A    between atoms: CA_575  and  CB_578
REMARK  337  A    between atoms: CB_578  and  CG_579
REMARK  338  A    between atoms: CZ_584  and  OH_585
REMARK  339  A    between atoms: N_586  and  CA_587
REMARK  340  A    between atoms: CA_587  and  C_588
REMARK  341  A    between atoms: N_590  and  CA_591
REMARK  342  A    between atoms: CA_591  and  C_592
REMARK  343  A    between atoms: CA_591  and  CB_594
REMARK  344  A    between atoms: CB_594  and  CG_595
REMARK  345  A    between atoms: CZ_600  and  OH_601
REMARK  346  A    between atoms: N_602  and  CA_603
REMARK  347  A    between atoms: CA_603  and  C_604
REMARK  348  A    between atoms: CA_603  and  CB_606
REMARK  349  A    between atoms: CB_606  and  CG_607
REMARK  350  A    between atoms: N_613  and  CA_614
REMARK  351  A    between atoms: CA_614  and  C_615
REMARK  352  A    between atoms: CA_614  and  CB_617
REMARK  353  A    between atoms: CB_617  and  CG_618
REMARK  354  A    between atoms: N_623  and  CA_624
REMARK  355  A    between atoms: CA_624  and  C_625
REMARK  356  A    between atoms: CA_624  and  CB_627
REMARK  357  A    between atoms: CB_627  and  CG_628
REMARK  358  A    between atoms: N_631  and  CA_632
REMARK  359  A    between atoms: CA_632  and  C_633
REMARK  360  A    between atoms: CA_632  and  CB_635
REMARK  361  A    between atoms: N_636  and  CA_637
REMARK  362  A    between atoms: CA_637  and  C_638
REMARK  363  A    between atoms: CA_637  and  CB_640
REMARK  364  A    between atoms: CB_640  and  OG1_641
REMARK  365  A    between atoms: CB_640  and  CG2_642
REMARK  366  A    between atoms: N_643  and  CA_644
REMARK  367  A    between atoms: CA_644  and  C_645
REMARK  368  A    between atoms: CA_644  and  CB_647
REMARK  369  A    between atoms: CB_647  and  CG_648
REMARK  370  A    between atoms: CG_648  and  CD_649
REMARK  371  A    between atoms: CD_649  and  NE_650
REMARK  372  A    between atoms: N_654  and  CA_655
REMARK  373  A    between atoms: CA_655  and  C_656
REMARK  374  A    between atoms: CA_655  and  CB_658
REMARK  375  A    between atoms: CB_658  and  CG1_659
REMARK  376  A    between atoms: CB_658  and  CG2_660
REMARK  377  A    between atoms: N_661  and  CA_662
REMARK  378  A    between atoms: CA_662  and  C_663
REMARK  379  A    between atoms: CA_662  and  CB_665
REMARK  380  A    between atoms: CB_665  and  CG_666
REMARK  381  A    between atoms: CZ_671  and  OH_672
REMARK  382  A    between atoms: N_673  and  CA_674
REMARK  383  A    between atoms: CA_674  and  C_675
REMARK  384  A    between atoms: CA_674  and  CB_677
REMARK  385  A    between atoms: CB_677  and  CG_678
REMARK  386  A    between atoms: CG_678  and  CD2_679
REMARK  387  A    between atoms: CG_678  and  CD1_680
REMARK  388  A    between atoms: N_681  and  CA_682
REMARK  389  A    between atoms: CA_682  and  C_683
REMARK  390  A    between atoms: CA_682  and  CB_685
REMARK  391  A    between atoms: CB_685  and  CG1_686
REMARK  392  A    between atoms: CB_685  and  CG2_687
REMARK  393  A    between atoms: CG1_686  and  CD1_688
REMARK  394  A    between atoms: N_689  and  CA_690
REMARK  395  A    between atoms: CA_690  and  C_691
REMARK  396  A    between atoms: CA_690  and  CB_693
REMARK  397  A    between atoms: CB_693  and  CG_694
REMARK  398  A    between atoms: CG_694  and  CD2_695
REMARK  399  A    between atoms: CG_694  and  CD1_696
REMARK  400  A    between atoms: N_697  and  CA_698
REMARK  401  A    between atoms: CA_698  and  C_699
REMARK  402  A    between atoms: CA_698  and  CB_701
REMARK  403  A    between atoms: CB_701  and  CG_702
REMARK  404  A    between atoms: CG_702  and  CD_703
REMARK  405  A    between atoms: N_706  and  CA_707
REMARK  406  A    between atoms: CA_707  and  C_708
REMARK  407  A    between atoms: CA_707  and  CB_710
REMARK  408  A    between atoms: CB_710  and  CG_711
REMARK  409  A    between atoms: CZ_716  and  OH_717
REMARK  410  A    between atoms: N_718  and  CA_719
REMARK  411  A    between atoms: CA_719  and  C_720
REMARK  412  A    between atoms: CA_719  and  CB_722
REMARK  413  A    between atoms: CA_724  and  C_725
REMARK  414  A    between atoms: N_730  and  CA_731
REMARK  415  A    between atoms: CA_731  and  C_732
REMARK  416  A    between atoms: CA_731  and  CB_734
REMARK  417  A    between atoms: CB_734  and  CG_735
REMARK  418  A    between atoms: CG_735  and  CD1_736
REMARK  419  A    between atoms: CG_735  and  CD2_737
REMARK  420  A    between atoms: N_738  and  CA_739
REMARK  421  A    between atoms: CA_739  and  C_740
REMARK  422  A    between atoms: N_742  and  CA_743
REMARK  423  A    between atoms: CA_743  and  C_744
REMARK  424  A    between atoms: CA_743  and  CB_746
REMARK  425  A    between atoms: CB_746  and  OG1_747
REMARK  426  A    between atoms: CB_746  and  CG2_748
REMARK  427  A    between atoms: N_749  and  CA_750
REMARK  428  A    between atoms: CA_750  and  C_751
REMARK  429  A    between atoms: CA_750  and  CB_753
REMARK  430  A    between atoms: CB_753  and  CG2_754
REMARK  431  A    between atoms: CB_753  and  CG1_755
REMARK  432  A    between atoms: N_756  and  CA_757
REMARK  433  A    between atoms: CA_757  and  C_758
REMARK  434  A    between atoms: CA_757  and  CB_760
REMARK  435  A    between atoms: CB_760  and  CG_761
REMARK  436  A    between atoms: CZ_766  and  OH_767
REMARK  437  A    between atoms: N_768  and  C_769
REMARK  438  A    between atoms: C_769  and  C_770
REMARK  439  A    between atoms: C_769  and  C_772
REMARK  440  A    between atoms: C_772  and  C_773
REMARK  441  A    between atoms: N_774  and  CA_775
REMARK  442  A    between atoms: CA_775  and  C_776
REMARK  443  A    between atoms: CA_775  and  CB_778
REMARK  444  A    between atoms: CB_778  and  CG_779
REMARK  445  A    between atoms: CG_779  and  CD_780
REMARK  446  A    between atoms: N_783  and  CA_784
REMARK  447  A    between atoms: CA_784  and  C_785
REMARK  448  A    between atoms: CA_784  and  CB_787
REMARK  449  A    between atoms: CB_787  and  CG_788
REMARK  450  A    between atoms: CG_788  and  CD2_789
REMARK  451  A    between atoms: CG_788  and  CD1_790
REMARK  452  A    between atoms: N_791  and  CA_792
REMARK  453  A    between atoms: CA_792  and  C_793
REMARK  454  A    between atoms: CA_792  and  CB_795
REMARK  455  A    between atoms: CB_795  and  CG_796
REMARK  456  A    between atoms: CG_796  and  CD_797
REMARK  457  A    between atoms: N_800  and  CA_801
REMARK  458  A    between atoms: CA_801  and  C_802
REMARK  459  A    between atoms: CA_801  and  CB_804
REMARK  460  A    between atoms: CB_804  and  CG_805
REMARK  461  A    between atoms: CG_805  and  CD_806
REMARK  462  A    between atoms: CD_806  and  CE_807
REMARK  463  A    between atoms: CE_807  and  NZ_808
REMARK  464  A    between atoms: N_809  and  CA_810
REMARK  465  A    between atoms: CA_810  and  C_811
REMARK  466  A    between atoms: CA_810  and  CB_813
REMARK  467  A    between atoms: CB_813  and  CG_814
REMARK  468  A    between atoms: CG_814  and  CD1_815
REMARK  469  A    between atoms: CG_814  and  CD2_816
REMARK  470  A    between atoms: N_817  and  CA_818
REMARK  471  A    between atoms: CA_818  and  C_819
REMARK  472  A    between atoms: CA_818  and  CB_821
REMARK  473  A    between atoms: CB_821  and  OG_822
REMARK  474  A    between atoms: N_823  and  CA_824
REMARK  475  A    between atoms: CA_824  and  C_825
REMARK  476  A    between atoms: CA_824  and  CB_827
REMARK  477  A    between atoms: CB_827  and  CG_828
REMARK  478  A    between atoms: CG_828  and  CD_829
REMARK  479  A    between atoms: CD_829  and  CE_830
REMARK  480  A    between atoms: CE_830  and  NZ_831
REMARK  481  A    between atoms: N_832  and  CA_833
REMARK  482  A    between atoms: CA_833  and  C_834
REMARK  483  A    between atoms: CA_833  and  CB_836
REMARK  484  A    between atoms: CB_836  and  CG_837
REMARK  485  A    between atoms: N_843  and  CA_844
REMARK  486  A    between atoms: CA_844  and  C_845
REMARK  487  A    between atoms: CA_844  and  CB_847
REMARK  488  A    between atoms: CB_847  and  CG_848
REMARK  489  A    between atoms: N_851  and  CA_852
REMARK  490  A    between atoms: CA_852  and  C_853
REMARK  491  A    between atoms: CA_852  and  CB_855
REMARK  492  A    between atoms: CB_855  and  CG_856
REMARK  493  A    between atoms: CG_856  and  CD_857
REMARK  494  A    between atoms: N_860  and  CA_861
REMARK  495  A    between atoms: CA_861  and  C_862
REMARK  496  A    between atoms: CA_861  and  CB_864
REMARK  497  A    between atoms: CB_864  and  CG_865
REMARK  498  A    between atoms: CG_865  and  CD_866
REMARK  499  A    between atoms: N_869  and  CA_870
REMARK  500  A    between atoms: CA_870  and  C_871
REMARK  501  A    between atoms: CA_870  and  CB_873
REMARK  502  A    between atoms: CB_873  and  CG_874
REMARK  503  A    between atoms: CG_874  and  CD_875
REMARK  504  A    between atoms: CD_875  and  NE_876
REMARK  505  A    between atoms: N_880  and  CA_881
REMARK  506  A    between atoms: CA_881  and  C_882
REMARK  507  A    between atoms: CA_881  and  CB_884
REMARK  508  A    between atoms: CB_884  and  OG1_885
REMARK  509  A    between atoms: CB_884  and  CG2_886
REMARK  510  A    between atoms: N_887  and  CA_888
REMARK  511  A    between atoms: CA_888  and  C_889
REMARK  512  A    between atoms: CA_888  and  CB_891
REMARK  513  A    between atoms: N_892  and  CA_893
REMARK  514  A    between atoms: CA_893  and  C_894
REMARK  515  A    between atoms: CA_893  and  CB_896
REMARK  516  A    between atoms: CB_896  and  OG1_897
REMARK  517  A    between atoms: CB_896  and  CG2_898
REMARK  518  A    between atoms: N_899  and  CA_900
REMARK  519  A    between atoms: CA_900  and  C_901
REMARK  520  A    between atoms: CA_900  and  CB_903
REMARK  521  A    between atoms: CB_903  and  CG_904
REMARK  522  A    between atoms: CZ_909  and  OH_910
REMARK  523  A    between atoms: N_911  and  CA_912
REMARK  524  A    between atoms: CA_912  and  C_913
REMARK  525  A    between atoms: CA_912  and  CB_915
REMARK  526  A    between atoms: CB_915  and  CG1_916
REMARK  527  A    between atoms: CB_915  and  CG2_917
REMARK  528  A    between atoms: CG1_916  and  CD1_918
REMARK  529  A    between atoms: N_919  and  CA_920
REMARK  530  A    between atoms: CA_920  and  C_921
REMARK  531  A    between atoms: CA_920  and  CB_923
REMARK  532  A    between atoms: CB_923  and  OG1_924
REMARK  533  A    between atoms: CB_923  and  CG2_925
REMARK  534  A    between atoms: N_926  and  CA_927
REMARK  535  A    between atoms: CA_927  and  C_928
REMARK  536  A    between atoms: CA_927  and  CB_930
REMARK  537  A    between atoms: CB_930  and  CG_931
REMARK  538  A    between atoms: CG_931  and  CD_932
REMARK  539  A    between atoms: N_935  and  CA_936
REMARK  540  A    between atoms: CA_936  and  C_937
REMARK  541  A    between atoms: CA_936  and  CB_939
REMARK  542  A    between atoms: CB_939  and  CG_940
REMARK  543  A    between atoms: CG_940  and  CD2_941
REMARK  544  A    between atoms: CG_940  and  CD1_942
REMARK  545  A    between atoms: N_943  and  CA_944
REMARK  546  A    between atoms: CA_944  and  C_945
REMARK  547  A    between atoms: CA_944  and  CB_947
REMARK  548  A    between atoms: N_948  and  CA_949
REMARK  549  A    between atoms: CA_949  and  C_950
REMARK  550  A    between atoms: CA_949  and  CB_952
REMARK  551  A    between atoms: CB_952  and  CG_953
REMARK  552  A    between atoms: N_956  and  CA_957
REMARK  553  A    between atoms: CA_957  and  C_958
REMARK  554  A    between atoms: CA_957  and  CB_960
REMARK  555  A    between atoms: N_961  and  CA_962
REMARK  556  A    between atoms: CA_962  and  C_963
REMARK  557  A    between atoms: CA_962  and  CB_965
REMARK  558  A    between atoms: CB_965  and  CG_966
REMARK  559  A    between atoms: CG_966  and  CD2_967
REMARK  560  A    between atoms: CG_966  and  CD1_968
REMARK  561  A    between atoms: N_969  and  CA_970
REMARK  562  A    between atoms: CA_970  and  C_971
REMARK  563  A    between atoms: CA_970  and  CB_973
REMARK  564  A    between atoms: CB_973  and  OG_974
REMARK  565  A    between atoms: N_975  and  CA_976
REMARK  566  A    between atoms: CA_976  and  C_977
REMARK  567  A    between atoms: CA_976  and  CB_979
REMARK  568  A    between atoms: CB_979  and  CG_980
REMARK  569  A    between atoms: CZ_985  and  OH_986
REMARK  570  A    between atoms: N_987  and  CA_988
REMARK  571  A    between atoms: CA_988  and  C_989
REMARK  572  A    between atoms: CA_988  and  CB_991
REMARK  573  A    between atoms: CB_991  and  SG_992
REMARK  574  A    between atoms: N_993  and  CA_994
REMARK  575  A    between atoms: CA_994  and  C_995
REMARK  576  A    between atoms: CA_994  and  CB_997
REMARK  577  A    between atoms: CB_997  and  CG_998
REMARK  578  A    between atoms: N_1003  and  C_1004
REMARK  579  A    between atoms: C_1004  and  C_1005
REMARK  580  A    between atoms: C_1004  and  C_1007
REMARK  581  A    between atoms: C_1007  and  O_1008
REMARK  582  A    between atoms: N_1009  and  C_1010
REMARK  583  A    between atoms: C_1010  and  C_1011
REMARK  584  A    between atoms: C_1010  and  C_1013
REMARK  585  A    between atoms: C_1013  and  C_1014
REMARK  586  A    between atoms: C_1014  and  C_1015
REMARK  587  A    between atoms: C_1015  and  C_1016
REMARK  588  A    between atoms: C_1016  and  N_1017
REMARK  589  A    between atoms: N_1018  and  C_1019
REMARK  590  A    between atoms: C_1020  and  C_1021
REMARK  591  A    between atoms: C_1020  and  C_1024
REMARK  592  A    between atoms: C_1023  and  C_1026
REMARK  593  A    between atoms: C_1025  and  C_1026
REMARK  594  A    between atoms: C_1027  and  N_1029
REMARK  595  A    between atoms: C_1028  and  N_1030
REMARK  596  A    between atoms: N_1037  and  C_1038
REMARK  597  A    between atoms: C_1038  and  C_1039
REMARK  598  A    between atoms: C_1038  and  C_1041
REMARK  599  A    between atoms: C_1041  and  C_1042
REMARK  600  A    between atoms: C_1041  and  C_1043
REMARK  601  A    between atoms: N_1044  and  C_1045
REMARK  602  A    between atoms: C_1045  and  C_1046
REMARK  603  A    between atoms: C_1045  and  C_1048
REMARK  604  A    between atoms: C_1048  and  C_1049
REMARK  605  A    between atoms: C_1048  and  C_1050
REMARK  606  A    between atoms: C_1049  and  C_1051
REMARK  607  A    between atoms: N_1052  and  C_1053
REMARK  608  A    between atoms: C_1053  and  C_1054
REMARK  609  A    between atoms: C_1053  and  C_1056
REMARK  610  A    between atoms: C_1056  and  C_1057
REMARK  611  A    between atoms: N_1062  and  C_1063
REMARK  612  A    between atoms: C_1063  and  C_1064
REMARK  613  A    between atoms: C_1063  and  C_1066
REMARK  614  A    between atoms: C_1066  and  C_1067
REMARK  615  A    between atoms: C_1067  and  C_1068
REMARK  616  A    between atoms: C_1068  and  N_1069
REMARK  617  A    between atoms: N_1073  and  C_1074
REMARK  618  A    between atoms: C_1074  and  C_1077
REMARK  619  A    between atoms: C_1077  and  C_1078
REMARK  620  A    between atoms: N_1081  and  C_1084
REMARK  621  A    between atoms: C_1083  and  C_1085
REMARK  622  A    between atoms: C_1085  and  C_1086
REMARK  623  A    between atoms: C_1085  and  O_1087
REMARK  624  A    between atoms: C_1085  and  N_1097
REMARK  625  A    between atoms: C_1089  and  C_1094
REMARK  626  A    between atoms: C_1090  and  C_1091
REMARK  627  A    between atoms: C_1093  and  C_1094
REMARK  628  A    between atoms: C_1098  and  C_1099
REMARK  629  A    between atoms: C_1098  and  C_1101
REMARK  630  A    between atoms: C_1101  and  C_1102
REMARK  631  A    between atoms: C_1102  and  C_1103
REMARK  632  A    between atoms: C_1103  and  C_1104
REMARK  633  A    between atoms: C_1104  and  N_1105
REMARK  634  A    between atoms: C_1107  and  C_1108
REMARK  635  A    between atoms: N_1113  and  CA_1114
REMARK  636  A    between atoms: CA_1114  and  C_1115
REMARK  637  A    between atoms: CA_1114  and  CB_1117
REMARK  638  A    between atoms: CB_1117  and  CG_1118
REMARK  639  A    between atoms: CG_1118  and  CD_1119
REMARK  640  A    between atoms: N_1122  and  CA_1123
REMARK  641  A    between atoms: CA_1123  and  C_1124
REMARK  642  A    between atoms: CA_1123  and  CB_1126
REMARK  643  A    between atoms: CB_1126  and  CG_1127
REMARK  644  A    between atoms: N_1130  and  CA_1131
REMARK  645  A    between atoms: CA_1131  and  C_1132
REMARK  646  A    between atoms: CA_1131  and  CB_1134
REMARK  647  A    between atoms: CB_1134  and  CG_1135
REMARK  648  A    between atoms: CG_1135  and  CD2_1136
REMARK  649  A    between atoms: CG_1135  and  CD1_1137
REMARK  650  A    between atoms: N_1138  and  CA_1139
REMARK  651  A    between atoms: CA_1139  and  C_1140
REMARK  652  A    between atoms: CA_1139  and  CB_1142
REMARK  653  A    between atoms: CB_1142  and  CG_1143
REMARK  654  A    between atoms: CG_1143  and  CD1_1144
REMARK  655  A    between atoms: CG_1143  and  CD2_1145
REMARK  656  A    between atoms: N_1146  and  CA_1147
REMARK  657  A    between atoms: CA_1147  and  C_1148
REMARK  658  A    between atoms: CA_1147  and  CB_1150
REMARK  659  A    between atoms: CB_1150  and  CG_1151
REMARK  660  A    between atoms: CG_1151  and  CD2_1152
REMARK  661  A    between atoms: CG_1151  and  CD1_1153
REMARK  662  A    between atoms: N_1154  and  CA_1155
REMARK  663  A    between atoms: CA_1155  and  C_1156
REMARK  664  A    between atoms: N_1158  and  CA_1159
REMARK  665  A    between atoms: CA_1159  and  C_1160
REMARK  666  A    between atoms: CA_1159  and  CB_1162
REMARK  667  A    between atoms: CB_1162  and  OG_1163
REMARK  668  A    between atoms: N_1164  and  CA_1165
REMARK  669  A    between atoms: CA_1165  and  C_1166
REMARK  670  A    between atoms: CA_1165  and  CB_1168
REMARK  671  A    between atoms: N_1169  and  CA_1170
REMARK  672  A    between atoms: CA_1170  and  C_1171
REMARK  673  A    between atoms: N_1173  and  CA_1174
REMARK  674  A    between atoms: CA_1174  and  C_1175
REMARK  675  A    between atoms: CA_1174  and  CB_1177
REMARK  676  A    between atoms: CB_1177  and  CG_1178
REMARK  677  A    between atoms: CG_1178  and  CD_1179
REMARK  678  A    between atoms: N_1182  and  CA_1183
REMARK  679  A    between atoms: CA_1183  and  C_1184
REMARK  680  A    between atoms: CA_1183  and  CB_1186
REMARK  681  A    between atoms: CB_1186  and  CG_1187
REMARK  682  A    between atoms: CG_1187  and  CD2_1188
REMARK  683  A    between atoms: CG_1187  and  CD1_1189
REMARK  684  A    between atoms: N_1190  and  CA_1191
REMARK  685  A    between atoms: CA_1191  and  C_1192
REMARK  686  A    between atoms: CA_1191  and  CB_1194
REMARK  687  A    between atoms: CB_1194  and  CG_1195
REMARK  688  A    between atoms: CG_1195  and  CD_1196
REMARK  689  A    between atoms: CD_1196  and  CE_1197
REMARK  690  A    between atoms: CE_1197  and  NZ_1198
REMARK  691  A    between atoms: N_1199  and  CA_1200
REMARK  692  A    between atoms: CA_1200  and  C_1201
REMARK  693  A    between atoms: CA_1200  and  CB_1203
REMARK  694  A    between atoms: CB_1203  and  CG1_1204
REMARK  695  A    between atoms: CB_1203  and  CG2_1205
REMARK  696  A    between atoms: CG1_1204  and  CD1_1206
REMARK  697  A    between atoms: N_1207  and  CA_1208
REMARK  698  A    between atoms: CA_1208  and  C_1209
REMARK  699  A    between atoms: CA_1208  and  CB_1211
REMARK  700  A    between atoms: N_1212  and  CA_1213
REMARK  701  A    between atoms: CA_1213  and  C_1214
REMARK  702  A    between atoms: CA_1213  and  CB_1216
REMARK  703  A    between atoms: CB_1216  and  CG_1217
REMARK  704  A    between atoms: N_1220  and  CA_1221
REMARK  705  A    between atoms: CA_1221  and  C_1222
REMARK  706  A    between atoms: CA_1221  and  CB_1224
REMARK  707  A    between atoms: CB_1224  and  CG_1225
REMARK  708  A    between atoms: N_1231  and  CA_1232
REMARK  709  A    between atoms: CA_1232  and  C_1233
REMARK  710  A    between atoms: N_1235  and  CA_1236
REMARK  711  A    between atoms: CA_1236  and  C_1237
REMARK  712  A    between atoms: CA_1236  and  CB_1239
REMARK  713  A    between atoms: CB_1239  and  CG_1240
REMARK  714  A    between atoms: N_1249  and  CA_1250
REMARK  715  A    between atoms: CA_1250  and  C_1251
REMARK  716  A    between atoms: CA_1250  and  CB_1253
REMARK  717  A    between atoms: CB_1253  and  OG_1254
REMARK  718  A    between atoms: N_1255  and  CA_1256
REMARK  719  A    between atoms: CA_1256  and  C_1257
REMARK  720  A    between atoms: CA_1256  and  CB_1259
REMARK  721  A    between atoms: CB_1259  and  CG2_1260
REMARK  722  A    between atoms: CB_1259  and  CG1_1261
REMARK  723  A    between atoms: N_1262  and  CA_1263
REMARK  724  A    between atoms: CA_1263  and  C_1264
REMARK  725  A    between atoms: CA_1263  and  CB_1266
REMARK  726  A    between atoms: CB_1266  and  CG_1267
REMARK  727  A    between atoms: N_1272  and  CA_1273
REMARK  728  A    between atoms: CA_1273  and  C_1274
REMARK  729  A    between atoms: CA_1273  and  CB_1276
REMARK  730  A    between atoms: CA_1278  and  C_1279
REMARK  731  A    between atoms: N_1284  and  CA_1285
REMARK  732  A    between atoms: CA_1285  and  C_1286
REMARK  733  A    between atoms: CA_1285  and  CB_1288
REMARK  734  A    between atoms: CB_1288  and  OG_1289
REMARK  735  A    between atoms: N_1290  and  CA_1291
REMARK  736  A    between atoms: CA_1291  and  C_1292
REMARK  737  A    between atoms: CA_1291  and  CB_1294
REMARK  738  A    between atoms: CB_1294  and  OG_1295
REMARK  739  A    between atoms: N_1296  and  C_1297
REMARK  740  A    between atoms: C_1297  and  C_1298
REMARK  741  A    between atoms: C_1297  and  C_1300
REMARK  742  A    between atoms: C_1300  and  C_1301
REMARK  743  A    between atoms: C_1301  and  C_1302
REMARK  744  A    between atoms: N_1303  and  CA_1304
REMARK  745  A    between atoms: CA_1304  and  C_1305
REMARK  746  A    between atoms: CA_1304  and  CB_1307
REMARK  747  A    between atoms: CB_1307  and  CG_1308
REMARK  748  A    between atoms: CG_1308  and  CD_1309
REMARK  749  A    between atoms: CD_1309  and  NE_1310
REMARK  750  A    between atoms: N_1314  and  CA_1315
REMARK  751  A    between atoms: CA_1315  and  C_1316
REMARK  752  A    between atoms: CA_1315  and  CB_1318
REMARK  753  A    between atoms: CB_1318  and  OG1_1319
REMARK  754  A    between atoms: CB_1318  and  CG2_1320
REMARK  755  A    between atoms: N_1321  and  C_1322
REMARK  756  A    between atoms: C_1322  and  C_1323
REMARK  757  A    between atoms: C_1322  and  C_1325
REMARK  758  A    between atoms: C_1325  and  C_1326
REMARK  759  A    between atoms: C_1326  and  C_1327
REMARK  760  A    between atoms: C_1326  and  C_1328
REMARK  761  A    between atoms: N_1329  and  C_1330
REMARK  762  A    between atoms: C_1330  and  C_1331
REMARK  763  A    between atoms: C_1330  and  C_1333
REMARK  764  A    between atoms: N_1334  and  C_1335
REMARK  765  A    between atoms: C_1335  and  C_1336
REMARK  766  A    between atoms: N_1338  and  C_1339
REMARK  767  A    between atoms: C_1339  and  C_1340
REMARK  768  A    between atoms: C_1339  and  C_1342
REMARK  769  A    between atoms: C_1342  and  O_1343
REMARK  770  A    between atoms: C_1342  and  C_1344
REMARK  771  A    between atoms: N_1345  and  C_1346
REMARK  772  A    between atoms: C_1346  and  C_1347
REMARK  773  A    between atoms: C_1346  and  C_1349
REMARK  774  A    between atoms: C_1349  and  C_1350
REMARK  775  A    between atoms: C_1350  and  C_1351
REMARK  776  A    between atoms: C_1350  and  C_1352
REMARK  777  A    between atoms: N_1353  and  C_1354
REMARK  778  A    between atoms: C_1354  and  C_1355
REMARK  779  A    between atoms: C_1354  and  C_1357
REMARK  780  A    between atoms: C_1357  and  C_1358
REMARK  781  A    between atoms: N_1361  and  C_1362
REMARK  782  A    between atoms: C_1362  and  C_1363
REMARK  783  A    between atoms: C_1362  and  C_1365
REMARK  784  A    between atoms: C_1365  and  C_1366
REMARK  785  A    between atoms: C_1371  and  O_1372
REMARK  786  A    between atoms: N_1373  and  C_1374
REMARK  787  A    between atoms: C_1374  and  C_1375
REMARK  788  A    between atoms: C_1374  and  C_1377
REMARK  789  A    between atoms: C_1377  and  C_1378
REMARK  790  A    between atoms: C_1378  and  C_1379
REMARK  791  A    between atoms: C_1378  and  C_1380
REMARK  792  A    between atoms: C_1382  and  C_1383
REMARK  793  A    between atoms: C_1389  and  C_1390
REMARK  794  A    between atoms: N_1395  and  C_1396
REMARK  795  A    between atoms: C_1396  and  C_1399
REMARK  796  A    between atoms: C_1399  and  C_1400
REMARK  797  A    between atoms: C_1400  and  C_1401
REMARK  798  A    between atoms: N_1405  and  C_1406
REMARK  799  A    between atoms: C_1407  and  C_1412
REMARK  800  A    between atoms: C_1408  and  O_1410
REMARK  801  A    between atoms: C_1409  and  O_1411
REMARK  802  A    between atoms: O_1410  and  O_1411
REMARK  803  A    between atoms: C_1412  and  C_1414
REMARK  804  A    between atoms: C_1413  and  C_1415
REMARK  805  A    between atoms: S_1416  and  C_1418
REMARK  806  A    between atoms: S_1417  and  C_1419
REMARK  807  A    between atoms: C_1418  and  C_1419
REMARK  808  A    between atoms: N_1420  and  CA_1421
REMARK  809  A    between atoms: CA_1421  and  C_1422
REMARK  810  A    between atoms: CA_1421  and  CB_1424
REMARK  811  A    between atoms: CB_1424  and  CG1_1425
REMARK  812  A    between atoms: CB_1424  and  CG2_1426
REMARK  813  A    between atoms: CG1_1425  and  CD1_1427
REMARK  814  A    between atoms: N_1428  and  CA_1429
REMARK  815  A    between atoms: CA_1429  and  C_1430
REMARK  816  A    between atoms: CA_1429  and  CB_1432
REMARK  817  A    between atoms: CB_1432  and  CG_1433
REMARK  818  A    between atoms: CG_1433  and  CD_1434
REMARK  819  A    between atoms: N_1437  and  CA_1438
REMARK  820  A    between atoms: CA_1438  and  C_1439
REMARK  821  A    between atoms: N_1441  and  CA_1442
REMARK  822  A    between atoms: CA_1442  and  C_1443
REMARK  823  A    between atoms: CA_1442  and  CB_1445
REMARK  824  A    between atoms: CB_1445  and  CG_1446
REMARK  825  A    between atoms: CG_1446  and  CD_1447
REMARK  826  A    between atoms: CD_1447  and  NE_1448
REMARK  827  A    between atoms: N_1452  and  C_1453
REMARK  828  A    between atoms: C_1453  and  C_1454
REMARK  829  A    between atoms: C_1453  and  C_1456
REMARK  830  A    between atoms: C_1456  and  C_1457
REMARK  831  A    between atoms: C_1457  and  S_1458
REMARK  832  A    between atoms: N_1459  and  CA_1460
REMARK  833  A    between atoms: CA_1460  and  C_1461
REMARK  834  A    between atoms: CA_1460  and  CB_1463
REMARK  835  A    between atoms: CB_1463  and  CG_1464
REMARK  836  A    between atoms: N_1469  and  CA_1470
REMARK  837  A    between atoms: CA_1470  and  C_1471
REMARK  838  A    between atoms: CA_1470  and  CB_1473
REMARK  839  A    between atoms: CB_1473  and  CG_1474
REMARK  840  A    between atoms: N_1477  and  CA_1478
REMARK  841  A    between atoms: CA_1478  and  C_1479
REMARK  842  A    between atoms: CA_1478  and  CB_1481
REMARK  843  A    between atoms: CB_1481  and  CG_1482
REMARK  844  A    between atoms: CG_1482  and  CD_1483
REMARK  845  A    between atoms: N_1486  and  CA_1487
REMARK  846  A    between atoms: CA_1487  and  C_1488
REMARK  847  A    between atoms: CA_1487  and  CB_1490
REMARK  848  A    between atoms: CB_1490  and  CG_1491
REMARK  849  A    between atoms: CG_1491  and  CD_1492
REMARK  850  A    between atoms: CD_1492  and  CE_1493
REMARK  851  A    between atoms: CE_1493  and  NZ_1494
REMARK  852  A    between atoms: N_1495  and  CA_1496
REMARK  853  A    between atoms: CA_1496  and  C_1497
REMARK  854  A    between atoms: CA_1496  and  CB_1499
REMARK  855  A    between atoms: CB_1499  and  CG2_1500
REMARK  856  A    between atoms: CB_1499  and  CG1_1501
REMARK  857  A    between atoms: N_1502  and  CA_1503
REMARK  858  A    between atoms: CA_1503  and  C_1504
REMARK  859  A    between atoms: CA_1503  and  CB_1506
REMARK  860  A    between atoms: CB_1506  and  CG_1507
REMARK  861  A    between atoms: N_1510  and  CA_1511
REMARK  862  A    between atoms: CA_1511  and  C_1512
REMARK  863  A    between atoms: CA_1511  and  CB_1514
REMARK  864  A    between atoms: CB_1514  and  CG_1515
REMARK  865  A    between atoms: CG_1515  and  CD2_1516
REMARK  866  A    between atoms: CG_1515  and  CD1_1517
REMARK  867  A    between atoms: N_1518  and  CA_1519
REMARK  868  A    between atoms: CA_1519  and  C_1520
REMARK  869  A    between atoms: CA_1519  and  CB_1522
REMARK  870  A    between atoms: CB_1522  and  CG_1523
REMARK  871  A    between atoms: N_1532  and  CA_1533
REMARK  872  A    between atoms: CA_1533  and  C_1534
REMARK  873  A    between atoms: CA_1533  and  CB_1536
REMARK  874  A    between atoms: CB_1536  and  OG_1537
REMARK  875  A    between atoms: N_1538  and  CA_1539
REMARK  876  A    between atoms: CA_1539  and  C_1540
REMARK  877  A    between atoms: CA_1539  and  CB_1542
REMARK  878  A    between atoms: CB_1542  and  CG_1543
REMARK  879  A    between atoms: CG_1543  and  CD2_1544
REMARK  880  A    between atoms: CG_1543  and  CD1_1545
REMARK  881  A    between atoms: N_1546  and  CA_1547
REMARK  882  A    between atoms: CA_1547  and  C_1548
REMARK  883  A    between atoms: N_1550  and  CA_1551
REMARK  884  A    between atoms: CA_1551  and  C_1552
REMARK  885  A    between atoms: CA_1551  and  CB_1554
REMARK  886  A    between atoms: CB_1554  and  CG2_1555
REMARK  887  A    between atoms: CB_1554  and  CG1_1556
REMARK  888  A    between atoms: N_1557  and  CA_1558
REMARK  889  A    between atoms: CA_1558  and  C_1559
REMARK  890  A    between atoms: CA_1558  and  CB_1561
REMARK  891  A    between atoms: CB_1561  and  CG_1562
REMARK  892  A    between atoms: CG_1562  and  CD1_1563
REMARK  893  A    between atoms: CG_1562  and  CD2_1564
REMARK  894  A    between atoms: N_1565  and  CA_1566
REMARK  895  A    between atoms: CA_1566  and  C_1567
REMARK  896  A    between atoms: CA_1566  and  CB_1569
REMARK  897  A    between atoms: CB_1569  and  SG_1570
REMARK  898  A    between atoms: N_1571  and  CA_1572
REMARK  899  A    between atoms: CA_1572  and  C_1573
REMARK  900  A    between atoms: CA_1572  and  CB_1575
REMARK  901  A    between atoms: CB_1575  and  CG_1576
REMARK  902  A    between atoms: CZ_1581  and  OH_1582
REMARK  903  A    between atoms: N_1583  and  CA_1584
REMARK  904  A    between atoms: CA_1584  and  C_1585
REMARK  905  A    between atoms: CA_1584  and  CB_1587
REMARK  906  A    between atoms: CB_1587  and  CG_1588
REMARK  907  A    between atoms: CG_1588  and  CD_1589
REMARK  908  A    between atoms: N_1592  and  CA_1593
REMARK  909  A    between atoms: CA_1593  and  C_1594
REMARK  910  A    between atoms: CA_1593  and  CB_1596
REMARK  911  A    between atoms: CB_1596  and  CG_1597
REMARK  912  A    between atoms: N_1603  and  CA_1604
REMARK  913  A    between atoms: CA_1604  and  C_1605
REMARK  914  A    between atoms: CA_1604  and  CB_1607
REMARK  915  A    between atoms: CB_1607  and  CG_1608
REMARK  916  A    between atoms: CG_1608  and  CD1_1609
REMARK  917  A    between atoms: CG_1608  and  CD2_1610
REMARK  918  A    between atoms: N_1611  and  CA_1612
REMARK  919  A    between atoms: CA_1612  and  C_1613
REMARK  920  A    between atoms: CA_1612  and  CB_1615
REMARK  921  A    between atoms: CB_1615  and  CG2_1616
REMARK  922  A    between atoms: CB_1615  and  CG1_1617
REMARK  923  A    between atoms: N_1618  and  CA_1619
REMARK  924  A    between atoms: CA_1619  and  C_1620
REMARK  925  A    between atoms: N_1622  and  C_1623
REMARK  926  A    between atoms: C_1623  and  C_1624
REMARK  927  A    between atoms: C_1623  and  C_1626
REMARK  928  A    between atoms: C_1626  and  C_1627
REMARK  929  A    between atoms: C_1627  and  C_1628
REMARK  930  A    between atoms: CA_1630  and  C_1631
REMARK  931  A    between atoms: CA_1637  and  C_1638
REMARK  932  A    between atoms: N_1643  and  CA_1644
REMARK  933  A    between atoms: CA_1644  and  C_1645
REMARK  934  A    between atoms: CA_1644  and  CB_1647
REMARK  935  A    between atoms: CB_1647  and  CG_1648
REMARK  936  A    between atoms: N_1654  and  CA_1655
REMARK  937  A    between atoms: CA_1655  and  C_1656
REMARK  938  A    between atoms: CA_1655  and  CB_1658
REMARK  939  A    between atoms: CB_1658  and  CG_1659
REMARK  940  A    between atoms: CG_1659  and  CD_1660
REMARK  941  A    between atoms: N_1663  and  CA_1664
REMARK  942  A    between atoms: CA_1664  and  C_1665
REMARK  943  A    between atoms: CA_1664  and  CB_1667
REMARK  944  A    between atoms: N_1668  and  CA_1669
REMARK  945  A    between atoms: CA_1669  and  C_1670
REMARK  946  A    between atoms: CA_1669  and  CB_1672
REMARK  947  A    between atoms: CB_1672  and  CG_1673
REMARK  948  A    between atoms: N_1676  and  CA_1677
REMARK  949  A    between atoms: CA_1677  and  C_1678
REMARK  950  A    between atoms: CA_1677  and  CB_1680
REMARK  951  A    between atoms: CB_1680  and  OG1_1681
REMARK  952  A    between atoms: CB_1680  and  CG2_1682
REMARK  953  A    between atoms: N_1683  and  CA_1684
REMARK  954  A    between atoms: CA_1684  and  C_1685
REMARK  955  A    between atoms: CA_1684  and  CB_1687
REMARK  956  A    between atoms: CB_1687  and  CG_1688
REMARK  957  A    between atoms: CZ_1693  and  OH_1694
REMARK  958  A    between atoms: N_1695  and  CA_1696
REMARK  959  A    between atoms: CA_1696  and  C_1697
REMARK  960  A    between atoms: CA_1696  and  CB_1699
REMARK  961  A    between atoms: CB_1699  and  CG_1700
REMARK  962  A    between atoms: CG_1700  and  CD_1701
REMARK  963  A    between atoms: N_1704  and  CA_1705
REMARK  964  A    between atoms: CA_1705  and  C_1706
REMARK  965  A    between atoms: CA_1705  and  CB_1708
REMARK  966  A    between atoms: CB_1708  and  CG_1709
REMARK  967  A    between atoms: CG_1709  and  CD_1710
REMARK  968  A    between atoms: N_1713  and  CA_1714
REMARK  969  A    between atoms: CA_1714  and  C_1715
REMARK  970  A    between atoms: CA_1714  and  CB_1717
REMARK  971  A    between atoms: CB_1717  and  OG1_1718
REMARK  972  A    between atoms: CB_1717  and  CG2_1719
REMARK  973  A    between atoms: N_1720  and  CA_1721
REMARK  974  A    between atoms: CA_1721  and  C_1722
REMARK  975  A    between atoms: CA_1721  and  CB_1724
REMARK  976  A    between atoms: CB_1724  and  CG_1725
REMARK  977  A    between atoms: CZ_1730  and  OH_1731
REMARK  978  A    between atoms: N_1732  and  CA_1733
REMARK  979  A    between atoms: CA_1733  and  C_1734
REMARK  980  A    between atoms: CA_1733  and  CB_1736
REMARK  981  A    between atoms: CB_1736  and  SG_1737
REMARK  982  A    between atoms: N_1738  and  C_1739
REMARK  983  A    between atoms: C_1739  and  C_1740
REMARK  984  A    between atoms: C_1739  and  C_1742
REMARK  985  A    between atoms: C_1742  and  C_1743
REMARK  986  A    between atoms: C_1743  and  C_1744
REMARK  987  A    between atoms: C_1744  and  N_1745
REMARK  988  A    between atoms: N_1746  and  CA_1747
REMARK  989  A    between atoms: CA_1747  and  C_1748
REMARK  990  A    between atoms: CA_1747  and  CB_1750
REMARK  991  A    between atoms: CB_1750  and  CG1_1751
REMARK  992  A    between atoms: CB_1750  and  CG2_1752
REMARK  993  A    between atoms: CG1_1751  and  CD1_1753
REMARK  994  A    between atoms: N_1754  and  C_1755
REMARK  995  A    between atoms: C_1755  and  C_1756
REMARK  996  A    between atoms: C_1755  and  C_1758
REMARK  997  A    between atoms: C_1758  and  O_1759
REMARK  998  A    between atoms: N_1760  and  C_1761
REMARK  999  A    between atoms: C_1761  and  C_1762
REMARK  1000  A    between atoms: C_1761  and  C_1764
REMARK  1001  A    between atoms: C_1764  and  C_1765
REMARK  1002  A    between atoms: C_1765  and  C_1766
REMARK  1003  A    between atoms: C_1766  and  N_1767
REMARK  1004  A    between atoms: N_1771  and  C_1772
REMARK  1005  A    between atoms: C_1772  and  C_1773
REMARK  1006  A    between atoms: C_1772  and  C_1775
REMARK  1007  A    between atoms: C_1775  and  C_1776
REMARK  1008  A    between atoms: C_1775  and  C_1777
REMARK  1009  A    between atoms: N_1778  and  C_1779
REMARK  1010  A    between atoms: C_1779  and  C_1780
REMARK  1011  A    between atoms: C_1779  and  C_1782
REMARK  1012  A    between atoms: C_1782  and  C_1783
REMARK  1013  A    between atoms: C_1783  and  C_1784
REMARK  1014  A    between atoms: N_1787  and  C_1788
REMARK  1015  A    between atoms: C_1788  and  C_1789
REMARK  1016  A    between atoms: C_1788  and  C_1791
REMARK  1017  A    between atoms: C_1791  and  C_1792
REMARK  1018  A    between atoms: N_1798  and  C_1799
REMARK  1019  A    between atoms: C_1799  and  C_1800
REMARK  1020  A    between atoms: C_1799  and  C_1802
REMARK  1021  A    between atoms: C_1802  and  O_1803
REMARK  1022  A    between atoms: C_1802  and  C_1804
REMARK  1023  A    between atoms: N_1805  and  C_1806
REMARK  1024  A    between atoms: C_1806  and  C_1807
REMARK  1025  A    between atoms: C_1806  and  C_1809
REMARK  1026  A    between atoms: C_1809  and  C_1810
REMARK  1027  A    between atoms: C_1817  and  C_1818
REMARK  1028  A    between atoms: N_1823  and  C_1824
REMARK  1029  A    between atoms: C_1824  and  C_1825
REMARK  1030  A    between atoms: C_1824  and  C_1827
REMARK  1031  A    between atoms: C_1827  and  C_1828
REMARK  1032  A    between atoms: N_1831  and  C_1832
REMARK  1033  A    between atoms: C_1832  and  C_1833
REMARK  1034  A    between atoms: C_1832  and  C_1835
REMARK  1035  A    between atoms: C_1835  and  C_1836
REMARK  1036  A    between atoms: N_1842  and  C_1843
REMARK  1037  A    between atoms: C_1843  and  C_1844
REMARK  1038  A    between atoms: C_1843  and  C_1846
REMARK  1039  A    between atoms: C_1846  and  C_1847
REMARK  1040  A    between atoms: C_1846  and  C_1848
REMARK  1041  A    between atoms: N_1849  and  C_1850
REMARK  1042  A    between atoms: C_1850  and  C_1851
REMARK  1043  A    between atoms: C_1850  and  C_1853
REMARK  1044  A    between atoms: C_1853  and  O_1854
REMARK  1045  A    between atoms: C_1853  and  C_1855
REMARK  1046  A    between atoms: N_1856  and  C_1857
REMARK  1047  A    between atoms: C_1858  and  C_1859
REMARK  1048  A    between atoms: C_1858  and  C_1861
REMARK  1049  A    between atoms: C_1862  and  C_1863
REMARK  1050  A    between atoms: C_1862  and  C_1864
REMARK  1051  A    between atoms: C_1863  and  C_1865
REMARK  1052  A    between atoms: N_1871  and  C_1872
REMARK  1053  A    between atoms: C_1872  and  C_1873
REMARK  1054  A    between atoms: N_1875  and  CA_1876
REMARK  1055  A    between atoms: CA_1876  and  C_1877
REMARK  1056  A    between atoms: CA_1876  and  CB_1879
REMARK  1057  A    between atoms: N_1880  and  CA_1881
REMARK  1058  A    between atoms: CA_1881  and  C_1882
REMARK  1059  A    between atoms: CA_1881  and  CB_1884
REMARK  1060  A    between atoms: CB_1884  and  CG_1885
REMARK  1061  A    between atoms: CG_1885  and  CD_1886
REMARK  1062  A    between atoms: CD_1886  and  NE_1887
REMARK  1063  A    between atoms: N_1891  and  CA_1892
REMARK  1064  A    between atoms: CA_1892  and  C_1893
REMARK  1065  A    between atoms: CA_1892  and  CB_1895
REMARK  1066  A    between atoms: CB_1895  and  CG_1896
REMARK  1067  A    between atoms: N_1899  and  CA_1900
REMARK  1068  A    between atoms: CA_1900  and  C_1901
REMARK  1069  A    between atoms: CA_1900  and  CB_1903
REMARK  1070  A    between atoms: CB_1903  and  CG_1904
REMARK  1071  A    between atoms: CG_1904  and  CD1_1905
REMARK  1072  A    between atoms: CG_1904  and  CD2_1906
REMARK  1073  A    between atoms: N_1907  and  CA_1908
REMARK  1074  A    between atoms: CA_1908  and  C_1909
REMARK  1075  A    between atoms: CA_1908  and  CB_1911
REMARK  1076  A    between atoms: CB_1911  and  CG1_1912
REMARK  1077  A    between atoms: CB_1911  and  CG2_1913
REMARK  1078  A    between atoms: CG1_1912  and  CD1_1914
REMARK  1079  A    between atoms: N_1915  and  CA_1916
REMARK  1080  A    between atoms: CA_1916  and  C_1917
REMARK  1081  A    between atoms: CA_1916  and  CB_1919
REMARK  1082  A    between atoms: CB_1919  and  OG_1920
REMARK  1083  A    between atoms: N_1921  and  CA_1922
REMARK  1084  A    between atoms: CA_1922  and  C_1923
REMARK  1085  A    between atoms: CA_1922  and  CB_1925
REMARK  1086  A    between atoms: CB_1925  and  CG_1926
REMARK  1087  A    between atoms: CG_1926  and  CD_1927
REMARK  1088  A    between atoms: CD_1927  and  NE_1928
REMARK  1089  A    between atoms: N_1932  and  CA_1933
REMARK  1090  A    between atoms: CA_1933  and  C_1934
REMARK  1091  A    between atoms: CA_1933  and  CB_1936
REMARK  1092  A    between atoms: CB_1936  and  CG_1937
REMARK  1093  A    between atoms: CG_1937  and  CD2_1938
REMARK  1094  A    between atoms: CG_1937  and  CD1_1939
REMARK  1095  A    between atoms: N_1940  and  CA_1941
REMARK  1096  A    between atoms: CA_1941  and  C_1942
REMARK  1097  A    between atoms: CA_1941  and  CB_1944
REMARK  1098  A    between atoms: CB_1944  and  CG_1945
REMARK  1099  A    between atoms: CG_1945  and  CD2_1946
REMARK  1100  A    between atoms: CG_1945  and  CD1_1947
REMARK  1101  A    between atoms: N_1948  and  CA_1949
REMARK  1102  A    between atoms: CA_1949  and  C_1950
REMARK  1103  A    between atoms: CA_1949  and  CB_1952
REMARK  1104  A    between atoms: CB_1952  and  CG_1953
REMARK  1105  A    between atoms: CG_1953  and  CD_1954
REMARK  1106  A    between atoms: CD_1954  and  CE_1955
REMARK  1107  A    between atoms: CE_1955  and  NZ_1956
REMARK  1108  A    between atoms: N_1957  and  CA_1958
REMARK  1109  A    between atoms: CA_1958  and  C_1959
REMARK  1110  A    between atoms: CA_1958  and  CB_1961
REMARK  1111  A    between atoms: CB_1961  and  CG_1962
REMARK  1112  A    between atoms: N_1967  and  CA_1968
REMARK  1113  A    between atoms: CA_1968  and  C_1969
REMARK  1114  A    between atoms: CA_1968  and  CB_1971
REMARK  1115  A    between atoms: CB_1971  and  CG_1972
REMARK  1116  A    between atoms: CA_1976  and  C_1977
REMARK  1117  A    between atoms: N_1982  and  C_1983
REMARK  1118  A    between atoms: C_1983  and  C_1984
REMARK  1119  A    between atoms: C_1983  and  C_1986
REMARK  1120  A    between atoms: C_1986  and  O_1987
REMARK  1121  A    between atoms: N_1988  and  C_1989
REMARK  1122  A    between atoms: C_1989  and  C_1990
REMARK  1123  A    between atoms: C_1989  and  C_1992
REMARK  1124  A    between atoms: C_1992  and  C_1993
REMARK  1125  A    between atoms: C_1993  and  C_1994
REMARK  1126  A    between atoms: N_1997  and  C_1998
REMARK  1127  A    between atoms: C_1998  and  C_1999
REMARK  1128  A    between atoms: C_1998  and  C_2001
REMARK  1129  A    between atoms: C_2001  and  C_2002
REMARK  1130  A    between atoms: C_2002  and  C_2003
REMARK  1131  A    between atoms: C_2003  and  N_2004
REMARK  1132  A    between atoms: C_2009  and  C_2010
REMARK  1133  A    between atoms: N_2015  and  C_2017
REMARK  1134  A    between atoms: C_2016  and  C_2018
REMARK  1135  A    between atoms: C_2016  and  C_2021
REMARK  1136  A    between atoms: C_2021  and  C_2022
REMARK  1137  A    between atoms: C_2022  and  C_2023
REMARK  1138  A    between atoms: C_2023  and  S_2024
REMARK  1139  A    between atoms: C_2023  and  S_2025
REMARK  1140  A    between atoms: S_2024  and  C_2026
REMARK  1141  A    between atoms: S_2025  and  C_2027
REMARK  1142  A    between atoms: N_2028  and  CA_2029
REMARK  1143  A    between atoms: CA_2029  and  C_2030
REMARK  1144  A    between atoms: CA_2029  and  CB_2032
REMARK  1145  A    between atoms: CB_2032  and  CG_2033
REMARK  1146  A    between atoms: CG_2033  and  CD1_2034
REMARK  1147  A    between atoms: CG_2033  and  CD2_2035
REMARK  1148  A    between atoms: N_2036  and  CA_2037
REMARK  1149  A    between atoms: CA_2037  and  C_2038
REMARK  1150  A    between atoms: CA_2037  and  CB_2040
REMARK  1151  A    between atoms: N_2041  and  CA_2042
REMARK  1152  A    between atoms: CA_2042  and  C_2043
REMARK  1153  A    between atoms: CA_2042  and  CB_2045
REMARK  1154  A    between atoms: CB_2045  and  CG_2046
REMARK  1155  A    between atoms: CG_2046  and  CD_2047
REMARK  1156  A    between atoms: N_2050  and  CA_2051
REMARK  1157  A    between atoms: CA_2051  and  C_2052
REMARK  1158  A    between atoms: CA_2051  and  CB_2054
REMARK  1159  A    between atoms: CB_2054  and  CG2_2055
REMARK  1160  A    between atoms: CB_2054  and  CG1_2056
REMARK  1161  A    between atoms: N_2057  and  CA_2058
REMARK  1162  A    between atoms: CA_2058  and  C_2059
REMARK  1163  A    between atoms: CA_2058  and  CB_2061
REMARK  1164  A    between atoms: CB_2061  and  CG_2062
REMARK  1165  A    between atoms: CG_2062  and  CD1_2063
REMARK  1166  A    between atoms: CG_2062  and  CD2_2064
REMARK  1167  A    between atoms: N_2065  and  CA_2066
REMARK  1168  A    between atoms: CA_2066  and  C_2067
REMARK  1169  A    between atoms: CA_2066  and  CB_2069
REMARK  1170  A    between atoms: CB_2069  and  CG_2070
REMARK  1171  A    between atoms: CG_2070  and  CD_2071
REMARK  1172  A    between atoms: N_2074  and  CA_2075
REMARK  1173  A    between atoms: CA_2075  and  C_2076
REMARK  1174  A    between atoms: CA_2075  and  CB_2078
REMARK  1175  A    between atoms: CB_2078  and  CG_2079
REMARK  1176  A    between atoms: CA_2085  and  C_2086
REMARK  1177  A    between atoms: N_2091  and  CA_2092
REMARK  1178  A    between atoms: CA_2092  and  C_2093
REMARK  1179  A    between atoms: CA_2092  and  CB_2095
REMARK  1180  A    between atoms: CB_2095  and  CG_2096
REMARK  1181  A    between atoms: N_2105  and  CA_2106
REMARK  1182  A    between atoms: CA_2106  and  C_2107
REMARK  1183  A    between atoms: CA_2106  and  CB_2109
REMARK  1184  A    between atoms: CB_2109  and  CG1_2110
REMARK  1185  A    between atoms: CB_2109  and  CG2_2111
REMARK  1186  A    between atoms: CG1_2110  and  CD1_2112
REMARK  1187  A    between atoms: N_2113  and  CA_2114
REMARK  1188  A    between atoms: CA_2114  and  C_2115
REMARK  1189  A    between atoms: CA_2114  and  CB_2117
REMARK  1190  A    between atoms: CB_2117  and  OG1_2118
REMARK  1191  A    between atoms: CB_2117  and  CG2_2119
REMARK  1192  A    between atoms: N_2120  and  CA_2121
REMARK  1193  A    between atoms: CA_2121  and  C_2122
REMARK  1194  A    between atoms: CA_2121  and  CB_2124
REMARK  1195  A    between atoms: N_2125  and  CA_2126
REMARK  1196  A    between atoms: CA_2126  and  C_2127
REMARK  1197  A    between atoms: CA_2126  and  CB_2129
REMARK  1198  A    between atoms: CB_2129  and  CG_2130
REMARK  1199  A    between atoms: N_2133  and  CA_2134
REMARK  1200  A    between atoms: CA_2134  and  C_2135
REMARK  1201  A    between atoms: CA_2134  and  CB_2137
REMARK  1202  A    between atoms: CB_2137  and  OG_2138
REMARK  1203  A    between atoms: N_2139  and  CA_2140
REMARK  1204  A    between atoms: CA_2140  and  C_2141
REMARK  1205  A    between atoms: CA_2140  and  CB_2143
REMARK  1206  A    between atoms: CB_2143  and  OG_2144
REMARK  1207  A    between atoms: N_2145  and  C_2146
REMARK  1208  A    between atoms: C_2146  and  C_2147
REMARK  1209  A    between atoms: C_2146  and  C_2149
REMARK  1210  A    between atoms: C_2149  and  C_2150
REMARK  1211  A    between atoms: N_2151  and  CA_2152
REMARK  1212  A    between atoms: CA_2152  and  C_2153
REMARK  1213  A    between atoms: CA_2152  and  CB_2155
REMARK  1214  A    between atoms: CB_2155  and  OG_2156
REMARK  1215  A    between atoms: N_2157  and  CA_2158
REMARK  1216  A    between atoms: CA_2158  and  C_2159
REMARK  1217  A    between atoms: CA_2158  and  CB_2161
REMARK  1218  A    between atoms: CB_2161  and  CG_2162
REMARK  1219  A    between atoms: CG_2162  and  CD_2163
REMARK  1220  A    between atoms: CA_2167  and  C_2168
REMARK  1221  A    between atoms: CA_2174  and  C_2175
REMARK  1222  A    between atoms: N_2180  and  CA_2181
REMARK  1223  A    between atoms: CA_2181  and  C_2182
REMARK  1224  A    between atoms: CA_2181  and  CB_2184
REMARK  1225  A    between atoms: CB_2184  and  OG_2185
REMARK  1226  A    between atoms: N_2186  and  CA_2187
REMARK  1227  A    between atoms: CA_2187  and  C_2188
REMARK  1228  A    between atoms: CA_2187  and  CB_2190
REMARK  1229  A    between atoms: CB_2190  and  CG_2191
REMARK  1230  A    between atoms: N_2200  and  CA_2201
REMARK  1231  A    between atoms: CA_2201  and  C_2202
REMARK  1232  A    between atoms: CA_2201  and  CB_2204
REMARK  1233  A    between atoms: CB_2204  and  CG2_2205
REMARK  1234  A    between atoms: CB_2204  and  CG1_2206
REMARK  1235  A    between atoms: N_2207  and  CA_2208
REMARK  1236  A    between atoms: CA_2208  and  C_2209
REMARK  1237  A    between atoms: CA_2208  and  CB_2211
REMARK  1238  A    between atoms: CB_2211  and  OG1_2212
REMARK  1239  A    between atoms: CB_2211  and  CG2_2213
REMARK  1240  A    between atoms: N_2214  and  CA_2215
REMARK  1241  A    between atoms: CA_2215  and  C_2216
REMARK  1242  A    between atoms: CA_2215  and  CB_2218
REMARK  1243  A    between atoms: CB_2218  and  CG_2219
REMARK  1244  A    between atoms: CG_2219  and  CD_2220
REMARK  1245  A    between atoms: N_2223  and  CA_2224
REMARK  1246  A    between atoms: CA_2224  and  C_2225
REMARK  1247  A    between atoms: CA_2224  and  CB_2227
REMARK  1248  A    between atoms: CB_2227  and  CG_2228
REMARK  1249  A    between atoms: CG_2228  and  SD_2229
REMARK  1250  A    between atoms: SD_2229  and  CE_2230
REMARK  1251  A    between atoms: N_2231  and  CA_2232
REMARK  1252  A    between atoms: CA_2232  and  C_2233
REMARK  1253  A    between atoms: CA_2232  and  CB_2235
REMARK  1254  A    between atoms: CB_2235  and  CG_2236
REMARK  1255  A    between atoms: CG_2236  and  CD1_2237
REMARK  1256  A    between atoms: CG_2236  and  CD2_2238
REMARK  1257  A    between atoms: N_2239  and  CA_2240
REMARK  1258  A    between atoms: CA_2240  and  C_2241
REMARK  1259  A    between atoms: CA_2240  and  CB_2243
REMARK  1260  A    between atoms: CB_2243  and  CG_2244
REMARK  1261  A    between atoms: CG_2244  and  CD1_2245
REMARK  1262  A    between atoms: CG_2244  and  CD2_2246
REMARK  1263  A    between atoms: N_2247  and  CA_2248
REMARK  1264  A    between atoms: CA_2248  and  C_2249
REMARK  1265  A    between atoms: CA_2248  and  CB_2251
REMARK  1266  A    between atoms: CB_2251  and  CG_2252
REMARK  1267  A    between atoms: CG_2252  and  CD_2253
REMARK  1268  A    between atoms: N_2256  and  CA_2257
REMARK  1269  A    between atoms: CA_2257  and  C_2258
REMARK  1270  A    between atoms: CA_2257  and  CB_2260
REMARK  1271  A    between atoms: CB_2260  and  CG_2261
REMARK  1272  A    between atoms: CG_2261  and  CD_2262
REMARK  1273  A    between atoms: CD_2262  and  CE_2263
REMARK  1274  A    between atoms: CE_2263  and  NZ_2264
REMARK  1275  A    between atoms: N_2265  and  C_2266
REMARK  1276  A    between atoms: C_2266  and  C_2267
REMARK  1277  A    between atoms: C_2266  and  C_2269
REMARK  1278  A    between atoms: C_2269  and  C_2270
REMARK  1279  A    between atoms: N_2271  and  CA_2272
REMARK  1280  A    between atoms: CA_2272  and  C_2273
REMARK  1281  A    between atoms: CA_2272  and  CB_2275
REMARK  1282  A    between atoms: CB_2275  and  CG_2276
REMARK  1283  A    between atoms: CG_2276  and  CD2_2277
REMARK  1284  A    between atoms: CG_2276  and  CD1_2278
REMARK  1285  A    between atoms: N_2279  and  CA_2280
REMARK  1286  A    between atoms: CA_2280  and  C_2281
REMARK  1287  A    between atoms: CA_2280  and  CB_2283
REMARK  1288  A    between atoms: CB_2283  and  CG_2284
REMARK  1289  A    between atoms: N_2293  and  CA_2294
REMARK  1290  A    between atoms: CA_2294  and  C_2295
REMARK                            x       y       z     vdW  Elec       q    Type
REMARK                         _______ _______ _______ _____ _____    ______ ____
ROOT
ATOM      1  C   UNL     7     -53.488  30.824   5.174  0.00  0.00    +0.003 C 
ATOM      2  C   UNL     7     -52.164  31.387   5.491  0.00  0.00    -0.007 C 
ATOM      3  C   UNL     7     -51.134  30.317   5.751  0.00  0.00    +0.003 C 
ENDROOT
TORSDOF 0
REMARK  Name = /Users/wangyang/Desktop/Breast_cancer_brain_metastasis/wang_Gene/AIDD/15_Protein_ligand_docking/data_7ztl/protein.pdb
REMARK  1290 active torsions:
REMARK  status: ('A' for Active; 'I' for Inactive)
REMARK    1  A    between atoms: N_1  and  CA_2
REMARK    2  A    between atoms: CA_2  and  C_3
REMARK    3  A    between atoms: N_5  and  CA_6
REMARK    4  A    between atoms: CA_6  and  C_7
REMARK    5  A    between atoms: CA_6  and  CB_9
REMARK    6  A    between atoms: N_10  and  CA_11
REMARK    7  A    between atoms: CA_11  and  C_12
REMARK    8  A    between atoms: CA_11  and  CB_14
REMARK    9  A    between atoms: CB_14  and  CG_15
REMARK   10  A    between atoms: N_24  and  CA_25
REMARK   11  A    between atoms: CA_25  and  C_26
REMARK   12  A    between atoms: CA_25  and  CB_28
REMARK   13  A    between atoms: N_29  and  CA_30
REMARK   14  A    between atoms: CA_30  and  C_31
REMARK   15  A    between atoms: CA_30  and  CB_33
REMARK   16  A    between atoms: CB_33  and  CG_34
REMARK   17  A    between atoms: CG_34  and  CD1_35
REMARK   18  A    between atoms: CG_34  and  CD2_36
REMARK   19  A    between atoms: N_37  and  CA_38
REMARK   20  A    between atoms: CA_38  and  C_39
REMARK   21  A    between atoms: CA_38  and  CB_41
REMARK   22  A    between atoms: CB_41  and  CG_42
REMARK   23  A    between atoms: CG_42  and  CD_43
REMARK   24  A    between atoms: N_46  and  CA_47
REMARK   25  A    between atoms: CA_47  and  C_48
REMARK   26  A    between atoms: CA_47  and  CB_50
REMARK   27  A    between atoms: CB_50  and  CG_51
REMARK   28  A    between atoms: N_54  and  CA_55
REMARK   29  A    between atoms: CA_55  and  C_56
REMARK   30  A    between atoms: CA_55  and  CB_58
REMARK   31  A    between atoms: CB_58  and  CG_59
REMARK   32  A    between atoms: N_65  and  CA_66
REMARK   33  A    between atoms: CA_66  and  C_67
REMARK   34  A    between atoms: CA_66  and  CB_69
REMARK   35  A    between atoms: CB_69  and  CG_70
REMARK   36  A    between atoms: CG_70  and  CD_71
REMARK   37  A    between atoms: N_74  and  CA_75
REMARK   38  A    between atoms: CA_75  and  C_76
REMARK   39  A    between atoms: CA_75  and  CB_78
REMARK   40  A    between atoms: CB_78  and  CG1_79
REMARK   41  A    between atoms: CB_78  and  CG2_80
REMARK   42  A    between atoms: CG1_79  and  CD1_81
REMARK   43  A    between atoms: N_82  and  CA_83
REMARK   44  A    between atoms: CA_83  and  C_84
REMARK   45  A    between atoms: N_86  and  CA_87
REMARK   46  A    between atoms: CA_87  and  C_88
REMARK   47  A    between atoms: CA_87  and  CB_90
REMARK   48  A    between atoms: CB_90  and  CG_91
REMARK   49  A    between atoms: CG_91  and  CD_92
REMARK   50  A    between atoms: CD_92  and  NE_93
REMARK   51  A    between atoms: CA_98  and  C_99
REMARK   52  A    between atoms: N_104  and  CA_105
REMARK   53  A    between atoms: CA_105  and  C_106
REMARK   54  A    between atoms: CA_105  and  CB_108
REMARK   55  A    between atoms: CB_108  and  CG_109
REMARK   56  A    between atoms: CG_109  and  CD1_110
REMARK   57  A    between atoms: CG_109  and  CD2_111
REMARK   58  A    between atoms: N_112  and  CA_113
REMARK   59  A    between atoms: CA_113  and  C_114
REMARK   60  A    between atoms: N_116  and  C_117
REMARK   61  A    between atoms: C_117  and  C_118
REMARK   62  A    between atoms: C_117  and  C_120
REMARK   63  A    between atoms: C_120  and  C_121
REMARK   64  A    between atoms: C_121  and  C_122
REMARK   65  A    between atoms: N_123  and  CA_124
REMARK   66  A    between atoms: CA_124  and  C_125
REMARK   67  A    between atoms: N_127  and  CA_128
REMARK   68  A    between atoms: CA_128  and  C_129
REMARK   69  A    between atoms: CA_128  and  CB_131
REMARK   70  A    between atoms: CB_131  and  CG_132
REMARK   71  A    between atoms: CG_132  and  CD_133
REMARK   72  A    between atoms: CD_133  and  CE_134
REMARK   73  A    between atoms: CE_134  and  NZ_135
REMARK   74  A    between atoms: N_136  and  CA_137
REMARK   75  A    between atoms: CA_137  and  C_138
REMARK   76  A    between atoms: CA_137  and  CB_140
REMARK   77  A    between atoms: CB_140  and  CG_141
REMARK   78  A    between atoms: N_147  and  CA_148
REMARK   79  A    between atoms: CA_148  and  C_149
REMARK   80  A    between atoms: N_151  and  CA_152
REMARK   81  A    between atoms: CA_152  and  C_153
REMARK   82  A    between atoms: CA_152  and  CB_155
REMARK   83  A    between atoms: CB_155  and  CG_156
REMARK   84  A    between atoms: N_159  and  CA_160
REMARK   85  A    between atoms: CA_160  and  C_161
REMARK   86  A    between atoms: CA_160  and  CB_163
REMARK   87  A    between atoms: CB_163  and  CG1_164
REMARK   88  A    between atoms: CB_163  and  CG2_165
REMARK   89  A    between atoms: N_166  and  CA_167
REMARK   90  A    between atoms: CA_167  and  C_168
REMARK   91  A    between atoms: CA_167  and  CB_170
REMARK   92  A    between atoms: CB_170  and  CG_171
REMARK   93  A    between atoms: CZ_176  and  OH_177
REMARK   94  A    between atoms: N_178  and  CA_179
REMARK   95  A    between atoms: CA_179  and  C_180
REMARK   96  A    between atoms: CA_179  and  CB_182
REMARK   97  A    between atoms: CB_182  and  CG_183
REMARK   98  A    between atoms: CG_183  and  CD1_184
REMARK   99  A    between atoms: CG_183  and  CD2_185
REMARK  100  A    between atoms: N_186  and  CA_187
REMARK  101  A    between atoms: CA_187  and  C_188
REMARK  102  A    between atoms: CA_187  and  CB_190
REMARK  103  A    between atoms: N_191  and  CA_192
REMARK  104  A    between atoms: CA_192  and  C_193
REMARK  105  A    between atoms: CA_192  and  CB_195
REMARK  106  A    between atoms: CB_195  and  CG_196
REMARK  107  A    between atoms: CG_196  and  CD_197
REMARK  108  A    between atoms: CD_197  and  NE_198
REMARK  109  A    between atoms: N_202  and  CA_203
REMARK  110  A    between atoms: CA_203  and  C_204
REMARK  111  A    between atoms: CA_203  and  CB_206
REMARK  112  A    between atoms: CB_206  and  CG_207
REMARK  113  A    between atoms: CG_207  and  CD_208
REMARK  114  A    between atoms: N_211  and  CA_212
REMARK  115  A    between atoms: CA_212  and  C_213
REMARK  116  A    between atoms: CA_212  and  CB_215
REMARK  117  A    between atoms: CB_215  and  CG_216
REMARK  118  A    between atoms: CG_216  and  CD_217
REMARK  119  A    between atoms: CD_217  and  CE_218
REMARK  120  A    between atoms: CE_218  and  NZ_219
REMARK  121  A    between atoms: N_220  and  CA_221
REMARK  122  A    between atoms: CA_221  and  C_222
REMARK  123  A    between atoms: CA_221  and  CB_224
REMARK  124  A    between atoms: N_225  and  CA_226
REMARK  125  A    between atoms: CA_226  and  C_227
REMARK  126  A    between atoms: CA_226  and  CB_229
REMARK  127  A    between atoms: CB_229  and  OG_230
REMARK  128  A    between atoms: N_231  and  CA_232
REMARK  129  A    between atoms: CA_232  and  C_233
REMARK  130  A    between atoms: CA_232  and  CB_235
REMARK  131  A    between atoms: CB_235  and  CG_236
REMARK  132  A    between atoms: CG_236  and  CD_237
REMARK  133  A    between atoms: CD_237  and  CE_238
REMARK  134  A    between atoms: CE_238  and  NZ_239
REMARK  135  A    between atoms: N_240  and  CA_241
REMARK  136  A    between atoms: CA_241  and  C_242
REMARK  137  A    between atoms: CA_241  and  CB_244
REMARK  138  A    between atoms: CB_244  and  CG_245
REMARK  139  A    between atoms: N_251  and  CA_252
REMARK  140  A    between atoms: CA_252  and  C_253
REMARK  141  A    between atoms: CA_252  and  CB_255
REMARK  142  A    between atoms: CB_255  and  CG1_256
REMARK  143  A    between atoms: CB_255  and  CG2_257
REMARK  144  A    between atoms: CG1_256  and  CD1_258
REMARK  145  A    between atoms: N_259  and  CA_260
REMARK  146  A    between atoms: CA_260  and  C_261
REMARK  147  A    between atoms: CA_260  and  CB_263
REMARK  148  A    between atoms: CB_263  and  CG_264
REMARK  149  A    between atoms: CG_264  and  CD1_265
REMARK  150  A    between atoms: CG_264  and  CD2_266
REMARK  151  A    between atoms: N_267  and  CA_268
REMARK  152  A    between atoms: CA_268  and  C_269
REMARK  153  A    between atoms: CA_268  and  CB_271
REMARK  154  A    between atoms: N_272  and  CA_273
REMARK  155  A    between atoms: CA_273  and  C_274
REMARK  156  A    between atoms: CA_273  and  CB_276
REMARK  157  A    between atoms: CB_276  and  CG_277
REMARK  158  A    between atoms: CG_277  and  CD2_278
REMARK  159  A    between atoms: CG_277  and  CD1_279
REMARK  160  A    between atoms: N_280  and  CA_281
REMARK  161  A    between atoms: CA_281  and  C_282
REMARK  162  A    between atoms: CA_281  and  CB_284
REMARK  163  A    between atoms: CB_284  and  CG_285
REMARK  164  A    between atoms: CG_285  and  CD_286
REMARK  165  A    between atoms: CD_286  and  CE_287
REMARK  166  A    between atoms: CE_287  and  NZ_288
REMARK  167  A    between atoms: N_289  and  CA_290
REMARK  168  A    between atoms: CA_290  and  C_291
REMARK  169  A    between atoms: CA_290  and  CB_293
REMARK  170  A    between atoms: CB_293  and  CG2_294
REMARK  171  A    between atoms: CB_293  and  CG1_295
REMARK  172  A    between atoms: N_296  and  CA_297
REMARK  173  A    between atoms: CA_297  and  C_298
REMARK  174  A    between atoms: CA_297  and  CB_300
REMARK  175  A    between atoms: CB_300  and  CG_301
REMARK  176  A    between atoms: CG_301  and  CD1_302
REMARK  177  A    between atoms: CG_301  and  CD2_303
REMARK  178  A    between atoms: N_304  and  CA_305
REMARK  179  A    between atoms: CA_305  and  C_306
REMARK  180  A    between atoms: CA_305  and  CB_308
REMARK  181  A    between atoms: CB_308  and  CG_309
REMARK  182  A    between atoms: N_315  and  CA_316
REMARK  183  A    between atoms: CA_316  and  C_317
REMARK  184  A    between atoms: CA_316  and  CB_319
REMARK  185  A    between atoms: CB_319  and  CG_320
REMARK  186  A    between atoms: CG_320  and  CD_321
REMARK  187  A    between atoms: CD_321  and  CE_322
REMARK  188  A    between atoms: CE_322  and  NZ_323
REMARK  189  A    between atoms: N_324  and  CA_325
REMARK  190  A    between atoms: CA_325  and  C_326
REMARK  191  A    between atoms: CA_325  and  CB_328
REMARK  192  A    between atoms: N_329  and  CA_330
REMARK  193  A    between atoms: CA_330  and  C_331
REMARK  194  A    between atoms: CA_330  and  CB_333
REMARK  195  A    between atoms: CB_333  and  CG_334
REMARK  196  A    between atoms: CG_334  and  CD_335
REMARK  197  A    between atoms: N_338  and  CA_339
REMARK  198  A    between atoms: CA_339  and  C_340
REMARK  199  A    between atoms: CA_339  and  CB_342
REMARK  200  A    between atoms: CB_342  and  CG_343
REMARK  201  A    between atoms: CG_343  and  CD1_344
REMARK  202  A    between atoms: CG_343  and  CD2_345
REMARK  203  A    between atoms: N_346  and  CA_347
REMARK  204  A    between atoms: CA_347  and  C_348
REMARK  205  A    between atoms: CA_347  and  CB_350
REMARK  206  A    between atoms: CB_350  and  CG_351
REMARK  207  A    between atoms: CG_351  and  CD_352
REMARK  208  A    between atoms: N_355  and  C_356
REMARK  209  A    between atoms: C_356  and  C_357
REMARK  210  A    between atoms: C_356  and  C_359
REMARK  211  A    between atoms: C_359  and  C_360
REMARK  212  A    between atoms: N_361  and  CA_362
REMARK  213  A    between atoms: CA_362  and  C_363
REMARK  214  A    between atoms: CA_362  and  CB_365
REMARK  215  A    between atoms: N_366  and  CA_367
REMARK  216  A    between atoms: CA_367  and  C_368
REMARK  217  A    between atoms: N_370  and  CA_371
REMARK  218  A    between atoms: CA_371  and  C_372
REMARK  219  A    between atoms: CA_371  and  CB_374
REMARK  220  A    between atoms: CB_374  and  CG2_375
REMARK  221  A    between atoms: CB_374  and  CG1_376
REMARK  222  A    between atoms: N_377  and  CA_378
REMARK  223  A    between atoms: CA_378  and  C_379
REMARK  224  A    between atoms: CA_378  and  CB_381
REMARK  225  A    between atoms: CB_381  and  CG_382
REMARK  226  A    between atoms: CG_382  and  CD_383
REMARK  227  A    between atoms: N_386  and  CA_387
REMARK  228  A    between atoms: CA_387  and  C_388
REMARK  229  A    between atoms: CA_387  and  CB_390
REMARK  230  A    between atoms: CB_390  and  CG_391
REMARK  231  A    between atoms: N_396  and  CA_397
REMARK  232  A    between atoms: CA_397  and  C_398
REMARK  233  A    between atoms: CA_397  and  CB_400
REMARK  234  A    between atoms: CB_400  and  CG_401
REMARK  235  A    between atoms: CG_401  and  CD_402
REMARK  236  A    between atoms: N_405  and  CA_406
REMARK  237  A    between atoms: CA_406  and  C_407
REMARK  238  A    between atoms: CA_406  and  CB_409
REMARK  239  A    between atoms: CB_409  and  CG_410
REMARK  240  A    between atoms: CG_410  and  CD2_411
REMARK  241  A    between atoms: CG_410  and  CD1_412
REMARK  242  A    between atoms: N_413  and  CA_414
REMARK  243  A    between atoms: CA_414  and  C_415
REMARK  244  A    between atoms: CA_414  and  CB_417
REMARK  245  A    between atoms: CB_417  and  CG_418
REMARK  246  A    between atoms: CG_418  and  CD_419
REMARK  247  A    between atoms: CD_419  and  NE_420
REMARK  248  A    between atoms: N_424  and  CA_425
REMARK  249  A    between atoms: CA_425  and  C_426
REMARK  250  A    between atoms: CA_425  and  CB_428
REMARK  251  A    between atoms: CB_428  and  CG_429
REMARK  252  A    between atoms: CG_429  and  CD_430
REMARK  253  A    between atoms: CD_430  and  NE_431
REMARK  254  A    between atoms: N_435  and  CA_436
REMARK  255  A    between atoms: CA_436  and  C_437
REMARK  256  A    between atoms: CA_436  and  CB_439
REMARK  257  A    between atoms: CB_439  and  CG_440
REMARK  258  A    between atoms: CG_440  and  CD_441
REMARK  259  A    between atoms: N_444  and  CA_445
REMARK  260  A    between atoms: CA_445  and  C_446
REMARK  261  A    between atoms: CA_445  and  CB_448
REMARK  262  A    between atoms: CB_448  and  CG1_449
REMARK  263  A    between atoms: CB_448  and  CG2_450
REMARK  264  A    between atoms: N_451  and  C_452
REMARK  265  A    between atoms: C_452  and  C_453
REMARK  266  A    between atoms: C_452  and  C_455
REMARK  267  A    between atoms: C_455  and  C_456
REMARK  268  A    between atoms: N_457  and  CA_458
REMARK  269  A    between atoms: CA_458  and  C_459
REMARK  270  A    between atoms: CA_458  and  CB_461
REMARK  271  A    between atoms: CB_461  and  CG1_462
REMARK  272  A    between atoms: CB_461  and  CG2_463
REMARK  273  A    between atoms: CG1_462  and  CD1_464
REMARK  274  A    between atoms: N_465  and  CA_466
REMARK  275  A    between atoms: CA_466  and  C_467
REMARK  276  A    between atoms: CA_466  and  CB_469
REMARK  277  A    between atoms: CB_469  and  CG_470
REMARK  278  A    between atoms: CG_470  and  CD_471
REMARK  279  A    between atoms: N_474  and  C_475
REMARK  280  A    between atoms: C_475  and  C_476
REMARK  281  A    between atoms: C_475  and  C_478
REMARK  282  A    between atoms: C_478  and  O_479
REMARK  283  A    between atoms: N_480  and  C_481
REMARK  284  A    between atoms: C_481  and  C_482
REMARK  285  A    between atoms: C_481  and  C_484
REMARK  286  A    between atoms: C_484  and  C_485
REMARK  287  A    between atoms: N_490  and  C_491
REMARK  288  A    between atoms: C_491  and  C_492
REMARK  289  A    between atoms: C_491  and  C_494
REMARK  290  A    between atoms: C_494  and  C_495
REMARK  291  A    between atoms: C_495  and  C_496
REMARK  292  A    between atoms: C_495  and  C_497
REMARK  293  A    between atoms: N_498  and  C_499
REMARK  294  A    between atoms: C_499  and  C_500
REMARK  295  A    between atoms: C_499  and  C_502
REMARK  296  A    between atoms: C_502  and  C_503
REMARK  297  A    between atoms: C_503  and  C_504
REMARK  298  A    between atoms: C_504  and  N_505
REMARK  299  A    between atoms: N_509  and  C_510
REMARK  300  A    between atoms: C_510  and  C_511
REMARK  301  A    between atoms: C_510  and  C_513
REMARK  302  A    between atoms: C_513  and  C_514
REMARK  303  A    between atoms: C_520  and  C_521
REMARK  304  A    between atoms: N_526  and  C_527
REMARK  305  A    between atoms: C_527  and  C_528
REMARK  306  A    between atoms: C_527  and  C_530
REMARK  307  A    between atoms: C_530  and  C_531
REMARK  308  A    between atoms: N_534  and  C_535
REMARK  309  A    between atoms: C_535  and  C_536
REMARK  310  A    between atoms: C_535  and  C_538
REMARK  311  A    between atoms: C_538  and  C_539
REMARK  312  A    between atoms: C_538  and  C_540
REMARK  313  A    between atoms: C_539  and  C_541
REMARK  314  A    between atoms: N_542  and  C_543
REMARK  315  A    between atoms: C_543  and  C_544
REMARK  316  A    between atoms: C_543  and  C_546
REMARK  317  A    between atoms: C_546  and  C_547
REMARK  318  A    between atoms: C_547  and  C_548
REMARK  319  A    between atoms: C_547  and  C_549
REMARK  320  A    between atoms: N_550  and  C_551
REMARK  321  A    between atoms: C_551  and  C_552
REMARK  322  A    between atoms: C_551  and  C_554
REMARK  323  A    between atoms: C_554  and  C_555
REMARK  324  A    between atoms: C_555  and  C_556
REMARK  325  A    between atoms: C_556  and  N_557
REMARK  326  A    between atoms: N_561  and  C_562
REMARK  327  A    between atoms: C_562  and  C_567
REMARK  328  A    between atoms: C_563  and  C_564
REMARK  329  A    between atoms: C_568  and  C_569
REMARK  330  A    between atoms: C_568  and  C_571
REMARK  331  A    between atoms: C_569  and  C_572
REMARK  332  A    between atoms: C_569  and  C_573
REMARK  333  A    between atoms: C_570  and  C_573
REMARK  334  A    between atoms: N_574  and  CA_575
REMARK  335  A    between atoms: CA_575  and  C_576
REMARK  336  A    between atoms: CA_575  and  CB_578
REMARK  337  A    between atoms: CB_578  and  CG_579
REMARK  338  A    between atoms: CZ_584  and  OH_585
REMARK  339  A    between atoms: N_586  and  CA_587
REMARK  340  A    between atoms: CA_587  and  C_588
REMARK  341  A    between atoms: N_590  and  CA_591
REMARK  342  A    between atoms: CA_591  and  C_592
REMARK  343  A    between atoms: CA_591  and  CB_594
REMARK  344  A    between atoms: CB_594  and  CG_595
REMARK  345  A    between atoms: CZ_600  and  OH_601
REMARK  346  A    between atoms: N_602  and  CA_603
REMARK  347  A    between atoms: CA_603  and  C_604
REMARK  348  A    between atoms: CA_603  and  CB_606
REMARK  349  A    between atoms: CB_606  and  CG_607
REMARK  350  A    between atoms: N_613  and  CA_614
REMARK  351  A    between atoms: CA_614  and  C_615
REMARK  352  A    between atoms: CA_614  and  CB_617
REMARK  353  A    between atoms: CB_617  and  CG_618
REMARK  354  A    between atoms: N_623  and  CA_624
REMARK  355  A    between atoms: CA_624  and  C_625
REMARK  356  A    between atoms: CA_624  and  CB_627
REMARK  357  A    between atoms: CB_627  and  CG_628
REMARK  358  A    between atoms: N_631  and  CA_632
REMARK  359  A    between atoms: CA_632  and  C_633
REMARK  360  A    between atoms: CA_632  and  CB_635
REMARK  361  A    between atoms: N_636  and  CA_637
REMARK  362  A    between atoms: CA_637  and  C_638
REMARK  363  A    between atoms: CA_637  and  CB_640
REMARK  364  A    between atoms: CB_640  and  OG1_641
REMARK  365  A    between atoms: CB_640  and  CG2_642
REMARK  366  A    between atoms: N_643  and  CA_644
REMARK  367  A    between atoms: CA_644  and  C_645
REMARK  368  A    between atoms: CA_644  and  CB_647
REMARK  369  A    between atoms: CB_647  and  CG_648
REMARK  370  A    between atoms: CG_648  and  CD_649
REMARK  371  A    between atoms: CD_649  and  NE_650
REMARK  372  A    between atoms: N_654  and  CA_655
REMARK  373  A    between atoms: CA_655  and  C_656
REMARK  374  A    between atoms: CA_655  and  CB_658
REMARK  375  A    between atoms: CB_658  and  CG1_659
REMARK  376  A    between atoms: CB_658  and  CG2_660
REMARK  377  A    between atoms: N_661  and  CA_662
REMARK  378  A    between atoms: CA_662  and  C_663
REMARK  379  A    between atoms: CA_662  and  CB_665
REMARK  380  A    between atoms: CB_665  and  CG_666
REMARK  381  A    between atoms: CZ_671  and  OH_672
REMARK  382  A    between atoms: N_673  and  CA_674
REMARK  383  A    between atoms: CA_674  and  C_675
REMARK  384  A    between atoms: CA_674  and  CB_677
REMARK  385  A    between atoms: CB_677  and  CG_678
REMARK  386  A    between atoms: CG_678  and  CD2_679
REMARK  387  A    between atoms: CG_678  and  CD1_680
REMARK  388  A    between atoms: N_681  and  CA_682
REMARK  389  A    between atoms: CA_682  and  C_683
REMARK  390  A    between atoms: CA_682  and  CB_685
REMARK  391  A    between atoms: CB_685  and  CG1_686
REMARK  392  A    between atoms: CB_685  and  CG2_687
REMARK  393  A    between atoms: CG1_686  and  CD1_688
REMARK  394  A    between atoms: N_689  and  CA_690
REMARK  395  A    between atoms: CA_690  and  C_691
REMARK  396  A    between atoms: CA_690  and  CB_693
REMARK  397  A    between atoms: CB_693  and  CG_694
REMARK  398  A    between atoms: CG_694  and  CD2_695
REMARK  399  A    between atoms: CG_694  and  CD1_696
REMARK  400  A    between atoms: N_697  and  CA_698
REMARK  401  A    between atoms: CA_698  and  C_699
REMARK  402  A    between atoms: CA_698  and  CB_701
REMARK  403  A    between atoms: CB_701  and  CG_702
REMARK  404  A    between atoms: CG_702  and  CD_703
REMARK  405  A    between atoms: N_706  and  CA_707
REMARK  406  A    between atoms: CA_707  and  C_708
REMARK  407  A    between atoms: CA_707  and  CB_710
REMARK  408  A    between atoms: CB_710  and  CG_711
REMARK  409  A    between atoms: CZ_716  and  OH_717
REMARK  410  A    between atoms: N_718  and  CA_719
REMARK  411  A    between atoms: CA_719  and  C_720
REMARK  412  A    between atoms: CA_719  and  CB_722
REMARK  413  A    between atoms: CA_724  and  C_725
REMARK  414  A    between atoms: N_730  and  CA_731
REMARK  415  A    between atoms: CA_731  and  C_732
REMARK  416  A    between atoms: CA_731  and  CB_734
REMARK  417  A    between atoms: CB_734  and  CG_735
REMARK  418  A    between atoms: CG_735  and  CD1_736
REMARK  419  A    between atoms: CG_735  and  CD2_737
REMARK  420  A    between atoms: N_738  and  CA_739
REMARK  421  A    between atoms: CA_739  and  C_740
REMARK  422  A    between atoms: N_742  and  CA_743
REMARK  423  A    between atoms: CA_743  and  C_744
REMARK  424  A    between atoms: CA_743  and  CB_746
REMARK  425  A    between atoms: CB_746  and  OG1_747
REMARK  426  A    between atoms: CB_746  and  CG2_748
REMARK  427  A    between atoms: N_749  and  CA_750
REMARK  428  A    between atoms: CA_750  and  C_751
REMARK  429  A    between atoms: CA_750  and  CB_753
REMARK  430  A    between atoms: CB_753  and  CG2_754
REMARK  431  A    between atoms: CB_753  and  CG1_755
REMARK  432  A    between atoms: N_756  and  CA_757
REMARK  433  A    between atoms: CA_757  and  C_758
REMARK  434  A    between atoms: CA_757  and  CB_760
REMARK  435  A    between atoms: CB_760  and  CG_761
REMARK  436  A    between atoms: CZ_766  and  OH_767
REMARK  437  A    between atoms: N_768  and  C_769
REMARK  438  A    between atoms: C_769  and  C_770
REMARK  439  A    between atoms: C_769  and  C_772
REMARK  440  A    between atoms: C_772  and  C_773
REMARK  441  A    between atoms: N_774  and  CA_775
REMARK  442  A    between atoms: CA_775  and  C_776
REMARK  443  A    between atoms: CA_775  and  CB_778
REMARK  444  A    between atoms: CB_778  and  CG_779
REMARK  445  A    between atoms: CG_779  and  CD_780
REMARK  446  A    between atoms: N_783  and  CA_784
REMARK  447  A    between atoms: CA_784  and  C_785
REMARK  448  A    between atoms: CA_784  and  CB_787
REMARK  449  A    between atoms: CB_787  and  CG_788
REMARK  450  A    between atoms: CG_788  and  CD2_789
REMARK  451  A    between atoms: CG_788  and  CD1_790
REMARK  452  A    between atoms: N_791  and  CA_792
REMARK  453  A    between atoms: CA_792  and  C_793
REMARK  454  A    between atoms: CA_792  and  CB_795
REMARK  455  A    between atoms: CB_795  and  CG_796
REMARK  456  A    between atoms: CG_796  and  CD_797
REMARK  457  A    between atoms: N_800  and  CA_801
REMARK  458  A    between atoms: CA_801  and  C_802
REMARK  459  A    between atoms: CA_801  and  CB_804
REMARK  460  A    between atoms: CB_804  and  CG_805
REMARK  461  A    between atoms: CG_805  and  CD_806
REMARK  462  A    between atoms: CD_806  and  CE_807
REMARK  463  A    between atoms: CE_807  and  NZ_808
REMARK  464  A    between atoms: N_809  and  CA_810
REMARK  465  A    between atoms: CA_810  and  C_811
REMARK  466  A    between atoms: CA_810  and  CB_813
REMARK  467  A    between atoms: CB_813  and  CG_814
REMARK  468  A    between atoms: CG_814  and  CD1_815
REMARK  469  A    between atoms: CG_814  and  CD2_816
REMARK  470  A    between atoms: N_817  and  CA_818
REMARK  471  A    between atoms: CA_818  and  C_819
REMARK  472  A    between atoms: CA_818  and  CB_821
REMARK  473  A    between atoms: CB_821  and  OG_822
REMARK  474  A    between atoms: N_823  and  CA_824
REMARK  475  A    between atoms: CA_824  and  C_825
REMARK  476  A    between atoms: CA_824  and  CB_827
REMARK  477  A    between atoms: CB_827  and  CG_828
REMARK  478  A    between atoms: CG_828  and  CD_829
REMARK  479  A    between atoms: CD_829  and  CE_830
REMARK  480  A    between atoms: CE_830  and  NZ_831
REMARK  481  A    between atoms: N_832  and  CA_833
REMARK  482  A    between atoms: CA_833  and  C_834
REMARK  483  A    between atoms: CA_833  and  CB_836
REMARK  484  A    between atoms: CB_836  and  CG_837
REMARK  485  A    between atoms: N_843  and  CA_844
REMARK  486  A    between atoms: CA_844  and  C_845
REMARK  487  A    between atoms: CA_844  and  CB_847
REMARK  488  A    between atoms: CB_847  and  CG_848
REMARK  489  A    between atoms: N_851  and  CA_852
REMARK  490  A    between atoms: CA_852  and  C_853
REMARK  491  A    between atoms: CA_852  and  CB_855
REMARK  492  A    between atoms: CB_855  and  CG_856
REMARK  493  A    between atoms: CG_856  and  CD_857
REMARK  494  A    between atoms: N_860  and  CA_861
REMARK  495  A    between atoms: CA_861  and  C_862
REMARK  496  A    between atoms: CA_861  and  CB_864
REMARK  497  A    between atoms: CB_864  and  CG_865
REMARK  498  A    between atoms: CG_865  and  CD_866
REMARK  499  A    between atoms: N_869  and  CA_870
REMARK  500  A    between atoms: CA_870  and  C_871
REMARK  501  A    between atoms: CA_870  and  CB_873
REMARK  502  A    between atoms: CB_873  and  CG_874
REMARK  503  A    between atoms: CG_874  and  CD_875
REMARK  504  A    between atoms: CD_875  and  NE_876
REMARK  505  A    between atoms: N_880  and  CA_881
REMARK  506  A    between atoms: CA_881  and  C_882
REMARK  507  A    between atoms: CA_881  and  CB_884
REMARK  508  A    between atoms: CB_884  and  OG1_885
REMARK  509  A    between atoms: CB_884  and  CG2_886
REMARK  510  A    between atoms: N_887  and  CA_888
REMARK  511  A    between atoms: CA_888  and  C_889
REMARK  512  A    between atoms: CA_888  and  CB_891
REMARK  513  A    between atoms: N_892  and  CA_893
REMARK  514  A    between atoms: CA_893  and  C_894
REMARK  515  A    between atoms: CA_893  and  CB_896
REMARK  516  A    between atoms: CB_896  and  OG1_897
REMARK  517  A    between atoms: CB_896  and  CG2_898
REMARK  518  A    between atoms: N_899  and  CA_900
REMARK  519  A    between atoms: CA_900  and  C_901
REMARK  520  A    between atoms: CA_900  and  CB_903
REMARK  521  A    between atoms: CB_903  and  CG_904
REMARK  522  A    between atoms: CZ_909  and  OH_910
REMARK  523  A    between atoms: N_911  and  CA_912
REMARK  524  A    between atoms: CA_912  and  C_913
REMARK  525  A    between atoms: CA_912  and  CB_915
REMARK  526  A    between atoms: CB_915  and  CG1_916
REMARK  527  A    between atoms: CB_915  and  CG2_917
REMARK  528  A    between atoms: CG1_916  and  CD1_918
REMARK  529  A    between atoms: N_919  and  CA_920
REMARK  530  A    between atoms: CA_920  and  C_921
REMARK  531  A    between atoms: CA_920  and  CB_923
REMARK  532  A    between atoms: CB_923  and  OG1_924
REMARK  533  A    between atoms: CB_923  and  CG2_925
REMARK  534  A    between atoms: N_926  and  CA_927
REMARK  535  A    between atoms: CA_927  and  C_928
REMARK  536  A    between atoms: CA_927  and  CB_930
REMARK  537  A    between atoms: CB_930  and  CG_931
REMARK  538  A    between atoms: CG_931  and  CD_932
REMARK  539  A    between atoms: N_935  and  CA_936
REMARK  540  A    between atoms: CA_936  and  C_937
REMARK  541  A    between atoms: CA_936  and  CB_939
REMARK  542  A    between atoms: CB_939  and  CG_940
REMARK  543  A    between atoms: CG_940  and  CD2_941
REMARK  544  A    between atoms: CG_940  and  CD1_942
REMARK  545  A    between atoms: N_943  and  CA_944
REMARK  546  A    between atoms: CA_944  and  C_945
REMARK  547  A    between atoms: CA_944  and  CB_947
REMARK  548  A    between atoms: N_948  and  CA_949
REMARK  549  A    between atoms: CA_949  and  C_950
REMARK  550  A    between atoms: CA_949  and  CB_952
REMARK  551  A    between atoms: CB_952  and  CG_953
REMARK  552  A    between atoms: N_956  and  CA_957
REMARK  553  A    between atoms: CA_957  and  C_958
REMARK  554  A    between atoms: CA_957  and  CB_960
REMARK  555  A    between atoms: N_961  and  CA_962
REMARK  556  A    between atoms: CA_962  and  C_963
REMARK  557  A    between atoms: CA_962  and  CB_965
REMARK  558  A    between atoms: CB_965  and  CG_966
REMARK  559  A    between atoms: CG_966  and  CD2_967
REMARK  560  A    between atoms: CG_966  and  CD1_968
REMARK  561  A    between atoms: N_969  and  CA_970
REMARK  562  A    between atoms: CA_970  and  C_971
REMARK  563  A    between atoms: CA_970  and  CB_973
REMARK  564  A    between atoms: CB_973  and  OG_974
REMARK  565  A    between atoms: N_975  and  CA_976
REMARK  566  A    between atoms: CA_976  and  C_977
REMARK  567  A    between atoms: CA_976  and  CB_979
REMARK  568  A    between atoms: CB_979  and  CG_980
REMARK  569  A    between atoms: CZ_985  and  OH_986
REMARK  570  A    between atoms: N_987  and  CA_988
REMARK  571  A    between atoms: CA_988  and  C_989
REMARK  572  A    between atoms: CA_988  and  CB_991
REMARK  573  A    between atoms: CB_991  and  SG_992
REMARK  574  A    between atoms: N_993  and  CA_994
REMARK  575  A    between atoms: CA_994  and  C_995
REMARK  576  A    between atoms: CA_994  and  CB_997
REMARK  577  A    between atoms: CB_997  and  CG_998
REMARK  578  A    between atoms: N_1003  and  C_1004
REMARK  579  A    between atoms: C_1004  and  C_1005
REMARK  580  A    between atoms: C_1004  and  C_1007
REMARK  581  A    between atoms: C_1007  and  O_1008
REMARK  582  A    between atoms: N_1009  and  C_1010
REMARK  583  A    between atoms: C_1010  and  C_1011
REMARK  584  A    between atoms: C_1010  and  C_1013
REMARK  585  A    between atoms: C_1013  and  C_1014
REMARK  586  A    between atoms: C_1014  and  C_1015
REMARK  587  A    between atoms: C_1015  and  C_1016
REMARK  588  A    between atoms: C_1016  and  N_1017
REMARK  589  A    between atoms: N_1018  and  C_1019
REMARK  590  A    between atoms: C_1020  and  C_1021
REMARK  591  A    between atoms: C_1020  and  C_1024
REMARK  592  A    between atoms: C_1023  and  C_1026
REMARK  593  A    between atoms: C_1025  and  C_1026
REMARK  594  A    between atoms: C_1027  and  N_1029
REMARK  595  A    between atoms: C_1028  and  N_1030
REMARK  596  A    between atoms: N_1037  and  C_1038
REMARK  597  A    between atoms: C_1038  and  C_1039
REMARK  598  A    between atoms: C_1038  and  C_1041
REMARK  599  A    between atoms: C_1041  and  C_1042
REMARK  600  A    between atoms: C_1041  and  C_1043
REMARK  601  A    between atoms: N_1044  and  C_1045
REMARK  602  A    between atoms: C_1045  and  C_1046
REMARK  603  A    between atoms: C_1045  and  C_1048
REMARK  604  A    between atoms: C_1048  and  C_1049
REMARK  605  A    between atoms: C_1048  and  C_1050
REMARK  606  A    between atoms: C_1049  and  C_1051
REMARK  607  A    between atoms: N_1052  and  C_1053
REMARK  608  A    between atoms: C_1053  and  C_1054
REMARK  609  A    between atoms: C_1053  and  C_1056
REMARK  610  A    between atoms: C_1056  and  C_1057
REMARK  611  A    between atoms: N_1062  and  C_1063
REMARK  612  A    between atoms: C_1063  and  C_1064
REMARK  613  A    between atoms: C_1063  and  C_1066
REMARK  614  A    between atoms: C_1066  and  C_1067
REMARK  615  A    between atoms: C_1067  and  C_1068
REMARK  616  A    between atoms: C_1068  and  N_1069
REMARK  617  A    between atoms: N_1073  and  C_1074
REMARK  618  A    between atoms: C_1074  and  C_1077
REMARK  619  A    between atoms: C_1077  and  C_1078
REMARK  620  A    between atoms: N_1081  and  C_1084
REMARK  621  A    between atoms: C_1083  and  C_1085
REMARK  622  A    between atoms: C_1085  and  C_1086
REMARK  623  A    between atoms: C_1085  and  O_1087
REMARK  624  A    between atoms: C_1085  and  N_1097
REMARK  625  A    between atoms: C_1089  and  C_1094
REMARK  626  A    between atoms: C_1090  and  C_1091
REMARK  627  A    between atoms: C_1093  and  C_1094
REMARK  628  A    between atoms: C_1098  and  C_1099
REMARK  629  A    between atoms: C_1098  and  C_1101
REMARK  630  A    between atoms: C_1101  and  C_1102
REMARK  631  A    between atoms: C_1102  and  C_1103
REMARK  632  A    between atoms: C_1103  and  C_1104
REMARK  633  A    between atoms: C_1104  and  N_1105
REMARK  634  A    between atoms: C_1107  and  C_1108
REMARK  635  A    between atoms: N_1113  and  CA_1114
REMARK  636  A    between atoms: CA_1114  and  C_1115
REMARK  637  A    between atoms: CA_1114  and  CB_1117
REMARK  638  A    between atoms: CB_1117  and  CG_1118
REMARK  639  A    between atoms: CG_1118  and  CD_1119
REMARK  640  A    between atoms: N_1122  and  CA_1123
REMARK  641  A    between atoms: CA_1123  and  C_1124
REMARK  642  A    between atoms: CA_1123  and  CB_1126
REMARK  643  A    between atoms: CB_1126  and  CG_1127
REMARK  644  A    between atoms: N_1130  and  CA_1131
REMARK  645  A    between atoms: CA_1131  and  C_1132
REMARK  646  A    between atoms: CA_1131  and  CB_1134
REMARK  647  A    between atoms: CB_1134  and  CG_1135
REMARK  648  A    between atoms: CG_1135  and  CD2_1136
REMARK  649  A    between atoms: CG_1135  and  CD1_1137
REMARK  650  A    between atoms: N_1138  and  CA_1139
REMARK  651  A    between atoms: CA_1139  and  C_1140
REMARK  652  A    between atoms: CA_1139  and  CB_1142
REMARK  653  A    between atoms: CB_1142  and  CG_1143
REMARK  654  A    between atoms: CG_1143  and  CD1_1144
REMARK  655  A    between atoms: CG_1143  and  CD2_1145
REMARK  656  A    between atoms: N_1146  and  CA_1147
REMARK  657  A    between atoms: CA_1147  and  C_1148
REMARK  658  A    between atoms: CA_1147  and  CB_1150
REMARK  659  A    between atoms: CB_1150  and  CG_1151
REMARK  660  A    between atoms: CG_1151  and  CD2_1152
REMARK  661  A    between atoms: CG_1151  and  CD1_1153
REMARK  662  A    between atoms: N_1154  and  CA_1155
REMARK  663  A    between atoms: CA_1155  and  C_1156
REMARK  664  A    between atoms: N_1158  and  CA_1159
REMARK  665  A    between atoms: CA_1159  and  C_1160
REMARK  666  A    between atoms: CA_1159  and  CB_1162
REMARK  667  A    between atoms: CB_1162  and  OG_1163
REMARK  668  A    between atoms: N_1164  and  CA_1165
REMARK  669  A    between atoms: CA_1165  and  C_1166
REMARK  670  A    between atoms: CA_1165  and  CB_1168
REMARK  671  A    between atoms: N_1169  and  CA_1170
REMARK  672  A    between atoms: CA_1170  and  C_1171
REMARK  673  A    between atoms: N_1173  and  CA_1174
REMARK  674  A    between atoms: CA_1174  and  C_1175
REMARK  675  A    between atoms: CA_1174  and  CB_1177
REMARK  676  A    between atoms: CB_1177  and  CG_1178
REMARK  677  A    between atoms: CG_1178  and  CD_1179
REMARK  678  A    between atoms: N_1182  and  CA_1183
REMARK  679  A    between atoms: CA_1183  and  C_1184
REMARK  680  A    between atoms: CA_1183  and  CB_1186
REMARK  681  A    between atoms: CB_1186  and  CG_1187
REMARK  682  A    between atoms: CG_1187  and  CD2_1188
REMARK  683  A    between atoms: CG_1187  and  CD1_1189
REMARK  684  A    between atoms: N_1190  and  CA_1191
REMARK  685  A    between atoms: CA_1191  and  C_1192
REMARK  686  A    between atoms: CA_1191  and  CB_1194
REMARK  687  A    between atoms: CB_1194  and  CG_1195
REMARK  688  A    between atoms: CG_1195  and  CD_1196
REMARK  689  A    between atoms: CD_1196  and  CE_1197
REMARK  690  A    between atoms: CE_1197  and  NZ_1198
REMARK  691  A    between atoms: N_1199  and  CA_1200
REMARK  692  A    between atoms: CA_1200  and  C_1201
REMARK  693  A    between atoms: CA_1200  and  CB_1203
REMARK  694  A    between atoms: CB_1203  and  CG1_1204
REMARK  695  A    between atoms: CB_1203  and  CG2_1205
REMARK  696  A    between atoms: CG1_1204  and  CD1_1206
REMARK  697  A    between atoms: N_1207  and  CA_1208
REMARK  698  A    between atoms: CA_1208  and  C_1209
REMARK  699  A    between atoms: CA_1208  and  CB_1211
REMARK  700  A    between atoms: N_1212  and  CA_1213
REMARK  701  A    between atoms: CA_1213  and  C_1214
REMARK  702  A    between atoms: CA_1213  and  CB_1216
REMARK  703  A    between atoms: CB_1216  and  CG_1217
REMARK  704  A    between atoms: N_1220  and  CA_1221
REMARK  705  A    between atoms: CA_1221  and  C_1222
REMARK  706  A    between atoms: CA_1221  and  CB_1224
REMARK  707  A    between atoms: CB_1224  and  CG_1225
REMARK  708  A    between atoms: N_1231  and  CA_1232
REMARK  709  A    between atoms: CA_1232  and  C_1233
REMARK  710  A    between atoms: N_1235  and  CA_1236
REMARK  711  A    between atoms: CA_1236  and  C_1237
REMARK  712  A    between atoms: CA_1236  and  CB_1239
REMARK  713  A    between atoms: CB_1239  and  CG_1240
REMARK  714  A    between atoms: N_1249  and  CA_1250
REMARK  715  A    between atoms: CA_1250  and  C_1251
REMARK  716  A    between atoms: CA_1250  and  CB_1253
REMARK  717  A    between atoms: CB_1253  and  OG_1254
REMARK  718  A    between atoms: N_1255  and  CA_1256
REMARK  719  A    between atoms: CA_1256  and  C_1257
REMARK  720  A    between atoms: CA_1256  and  CB_1259
REMARK  721  A    between atoms: CB_1259  and  CG2_1260
REMARK  722  A    between atoms: CB_1259  and  CG1_1261
REMARK  723  A    between atoms: N_1262  and  CA_1263
REMARK  724  A    between atoms: CA_1263  and  C_1264
REMARK  725  A    between atoms: CA_1263  and  CB_1266
REMARK  726  A    between atoms: CB_1266  and  CG_1267
REMARK  727  A    between atoms: N_1272  and  CA_1273
REMARK  728  A    between atoms: CA_1273  and  C_1274
REMARK  729  A    between atoms: CA_1273  and  CB_1276
REMARK  730  A    between atoms: CA_1278  and  C_1279
REMARK  731  A    between atoms: N_1284  and  CA_1285
REMARK  732  A    between atoms: CA_1285  and  C_1286
REMARK  733  A    between atoms: CA_1285  and  CB_1288
REMARK  734  A    between atoms: CB_1288  and  OG_1289
REMARK  735  A    between atoms: N_1290  and  CA_1291
REMARK  736  A    between atoms: CA_1291  and  C_1292
REMARK  737  A    between atoms: CA_1291  and  CB_1294
REMARK  738  A    between atoms: CB_1294  and  OG_1295
REMARK  739  A    between atoms: N_1296  and  C_1297
REMARK  740  A    between atoms: C_1297  and  C_1298
REMARK  741  A    between atoms: C_1297  and  C_1300
REMARK  742  A    between atoms: C_1300  and  C_1301
REMARK  743  A    between atoms: C_1301  and  C_1302
REMARK  744  A    between atoms: N_1303  and  CA_1304
REMARK  745  A    between atoms: CA_1304  and  C_1305
REMARK  746  A    between atoms: CA_1304  and  CB_1307
REMARK  747  A    between atoms: CB_1307  and  CG_1308
REMARK  748  A    between atoms: CG_1308  and  CD_1309
REMARK  749  A    between atoms: CD_1309  and  NE_1310
REMARK  750  A    between atoms: N_1314  and  CA_1315
REMARK  751  A    between atoms: CA_1315  and  C_1316
REMARK  752  A    between atoms: CA_1315  and  CB_1318
REMARK  753  A    between atoms: CB_1318  and  OG1_1319
REMARK  754  A    between atoms: CB_1318  and  CG2_1320
REMARK  755  A    between atoms: N_1321  and  C_1322
REMARK  756  A    between atoms: C_1322  and  C_1323
REMARK  757  A    between atoms: C_1322  and  C_1325
REMARK  758  A    between atoms: C_1325  and  C_1326
REMARK  759  A    between atoms: C_1326  and  C_1327
REMARK  760  A    between atoms: C_1326  and  C_1328
REMARK  761  A    between atoms: N_1329  and  C_1330
REMARK  762  A    between atoms: C_1330  and  C_1331
REMARK  763  A    between atoms: C_1330  and  C_1333
REMARK  764  A    between atoms: N_1334  and  C_1335
REMARK  765  A    between atoms: C_1335  and  C_1336
REMARK  766  A    between atoms: N_1338  and  C_1339
REMARK  767  A    between atoms: C_1339  and  C_1340
REMARK  768  A    between atoms: C_1339  and  C_1342
REMARK  769  A    between atoms: C_1342  and  O_1343
REMARK  770  A    between atoms: C_1342  and  C_1344
REMARK  771  A    between atoms: N_1345  and  C_1346
REMARK  772  A    between atoms: C_1346  and  C_1347
REMARK  773  A    between atoms: C_1346  and  C_1349
REMARK  774  A    between atoms: C_1349  and  C_1350
REMARK  775  A    between atoms: C_1350  and  C_1351
REMARK  776  A    between atoms: C_1350  and  C_1352
REMARK  777  A    between atoms: N_1353  and  C_1354
REMARK  778  A    between atoms: C_1354  and  C_1355
REMARK  779  A    between atoms: C_1354  and  C_1357
REMARK  780  A    between atoms: C_1357  and  C_1358
REMARK  781  A    between atoms: N_1361  and  C_1362
REMARK  782  A    between atoms: C_1362  and  C_1363
REMARK  783  A    between atoms: C_1362  and  C_1365
REMARK  784  A    between atoms: C_1365  and  C_1366
REMARK  785  A    between atoms: C_1371  and  O_1372
REMARK  786  A    between atoms: N_1373  and  C_1374
REMARK  787  A    between atoms: C_1374  and  C_1375
REMARK  788  A    between atoms: C_1374  and  C_1377
REMARK  789  A    between atoms: C_1377  and  C_1378
REMARK  790  A    between atoms: C_1378  and  C_1379
REMARK  791  A    between atoms: C_1378  and  C_1380
REMARK  792  A    between atoms: C_1382  and  C_1383
REMARK  793  A    between atoms: C_1389  and  C_1390
REMARK  794  A    between atoms: N_1395  and  C_1396
REMARK  795  A    between atoms: C_1396  and  C_1399
REMARK  796  A    between atoms: C_1399  and  C_1400
REMARK  797  A    between atoms: C_1400  and  C_1401
REMARK  798  A    between atoms: N_1405  and  C_1406
REMARK  799  A    between atoms: C_1407  and  C_1412
REMARK  800  A    between atoms: C_1408  and  O_1410
REMARK  801  A    between atoms: C_1409  and  O_1411
REMARK  802  A    between atoms: O_1410  and  O_1411
REMARK  803  A    between atoms: C_1412  and  C_1414
REMARK  804  A    between atoms: C_1413  and  C_1415
REMARK  805  A    between atoms: S_1416  and  C_1418
REMARK  806  A    between atoms: S_1417  and  C_1419
REMARK  807  A    between atoms: C_1418  and  C_1419
REMARK  808  A    between atoms: N_1420  and  CA_1421
REMARK  809  A    between atoms: CA_1421  and  C_1422
REMARK  810  A    between atoms: CA_1421  and  CB_1424
REMARK  811  A    between atoms: CB_1424  and  CG1_1425
REMARK  812  A    between atoms: CB_1424  and  CG2_1426
REMARK  813  A    between atoms: CG1_1425  and  CD1_1427
REMARK  814  A    between atoms: N_1428  and  CA_1429
REMARK  815  A    between atoms: CA_1429  and  C_1430
REMARK  816  A    between atoms: CA_1429  and  CB_1432
REMARK  817  A    between atoms: CB_1432  and  CG_1433
REMARK  818  A    between atoms: CG_1433  and  CD_1434
REMARK  819  A    between atoms: N_1437  and  CA_1438
REMARK  820  A    between atoms: CA_1438  and  C_1439
REMARK  821  A    between atoms: N_1441  and  CA_1442
REMARK  822  A    between atoms: CA_1442  and  C_1443
REMARK  823  A    between atoms: CA_1442  and  CB_1445
REMARK  824  A    between atoms: CB_1445  and  CG_1446
REMARK  825  A    between atoms: CG_1446  and  CD_1447
REMARK  826  A    between atoms: CD_1447  and  NE_1448
REMARK  827  A    between atoms: N_1452  and  C_1453
REMARK  828  A    between atoms: C_1453  and  C_1454
REMARK  829  A    between atoms: C_1453  and  C_1456
REMARK  830  A    between atoms: C_1456  and  C_1457
REMARK  831  A    between atoms: C_1457  and  S_1458
REMARK  832  A    between atoms: N_1459  and  CA_1460
REMARK  833  A    between atoms: CA_1460  and  C_1461
REMARK  834  A    between atoms: CA_1460  and  CB_1463
REMARK  835  A    between atoms: CB_1463  and  CG_1464
REMARK  836  A    between atoms: N_1469  and  CA_1470
REMARK  837  A    between atoms: CA_1470  and  C_1471
REMARK  838  A    between atoms: CA_1470  and  CB_1473
REMARK  839  A    between atoms: CB_1473  and  CG_1474
REMARK  840  A    between atoms: N_1477  and  CA_1478
REMARK  841  A    between atoms: CA_1478  and  C_1479
REMARK  842  A    between atoms: CA_1478  and  CB_1481
REMARK  843  A    between atoms: CB_1481  and  CG_1482
REMARK  844  A    between atoms: CG_1482  and  CD_1483
REMARK  845  A    between atoms: N_1486  and  CA_1487
REMARK  846  A    between atoms: CA_1487  and  C_1488
REMARK  847  A    between atoms: CA_1487  and  CB_1490
REMARK  848  A    between atoms: CB_1490  and  CG_1491
REMARK  849  A    between atoms: CG_1491  and  CD_1492
REMARK  850  A    between atoms: CD_1492  and  CE_1493
REMARK  851  A    between atoms: CE_1493  and  NZ_1494
REMARK  852  A    between atoms: N_1495  and  CA_1496
REMARK  853  A    between atoms: CA_1496  and  C_1497
REMARK  854  A    between atoms: CA_1496  and  CB_1499
REMARK  855  A    between atoms: CB_1499  and  CG2_1500
REMARK  856  A    between atoms: CB_1499  and  CG1_1501
REMARK  857  A    between atoms: N_1502  and  CA_1503
REMARK  858  A    between atoms: CA_1503  and  C_1504
REMARK  859  A    between atoms: CA_1503  and  CB_1506
REMARK  860  A    between atoms: CB_1506  and  CG_1507
REMARK  861  A    between atoms: N_1510  and  CA_1511
REMARK  862  A    between atoms: CA_1511  and  C_1512
REMARK  863  A    between atoms: CA_1511  and  CB_1514
REMARK  864  A    between atoms: CB_1514  and  CG_1515
REMARK  865  A    between atoms: CG_1515  and  CD2_1516
REMARK  866  A    between atoms: CG_1515  and  CD1_1517
REMARK  867  A    between atoms: N_1518  and  CA_1519
REMARK  868  A    between atoms: CA_1519  and  C_1520
REMARK  869  A    between atoms: CA_1519  and  CB_1522
REMARK  870  A    between atoms: CB_1522  and  CG_1523
REMARK  871  A    between atoms: N_1532  and  CA_1533
REMARK  872  A    between atoms: CA_1533  and  C_1534
REMARK  873  A    between atoms: CA_1533  and  CB_1536
REMARK  874  A    between atoms: CB_1536  and  OG_1537
REMARK  875  A    between atoms: N_1538  and  CA_1539
REMARK  876  A    between atoms: CA_1539  and  C_1540
REMARK  877  A    between atoms: CA_1539  and  CB_1542
REMARK  878  A    between atoms: CB_1542  and  CG_1543
REMARK  879  A    between atoms: CG_1543  and  CD2_1544
REMARK  880  A    between atoms: CG_1543  and  CD1_1545
REMARK  881  A    between atoms: N_1546  and  CA_1547
REMARK  882  A    between atoms: CA_1547  and  C_1548
REMARK  883  A    between atoms: N_1550  and  CA_1551
REMARK  884  A    between atoms: CA_1551  and  C_1552
REMARK  885  A    between atoms: CA_1551  and  CB_1554
REMARK  886  A    between atoms: CB_1554  and  CG2_1555
REMARK  887  A    between atoms: CB_1554  and  CG1_1556
REMARK  888  A    between atoms: N_1557  and  CA_1558
REMARK  889  A    between atoms: CA_1558  and  C_1559
REMARK  890  A    between atoms: CA_1558  and  CB_1561
REMARK  891  A    between atoms: CB_1561  and  CG_1562
REMARK  892  A    between atoms: CG_1562  and  CD1_1563
REMARK  893  A    between atoms: CG_1562  and  CD2_1564
REMARK  894  A    between atoms: N_1565  and  CA_1566
REMARK  895  A    between atoms: CA_1566  and  C_1567
REMARK  896  A    between atoms: CA_1566  and  CB_1569
REMARK  897  A    between atoms: CB_1569  and  SG_1570
REMARK  898  A    between atoms: N_1571  and  CA_1572
REMARK  899  A    between atoms: CA_1572  and  C_1573
REMARK  900  A    between atoms: CA_1572  and  CB_1575
REMARK  901  A    between atoms: CB_1575  and  CG_1576
REMARK  902  A    between atoms: CZ_1581  and  OH_1582
REMARK  903  A    between atoms: N_1583  and  CA_1584
REMARK  904  A    between atoms: CA_1584  and  C_1585
REMARK  905  A    between atoms: CA_1584  and  CB_1587
REMARK  906  A    between atoms: CB_1587  and  CG_1588
REMARK  907  A    between atoms: CG_1588  and  CD_1589
REMARK  908  A    between atoms: N_1592  and  CA_1593
REMARK  909  A    between atoms: CA_1593  and  C_1594
REMARK  910  A    between atoms: CA_1593  and  CB_1596
REMARK  911  A    between atoms: CB_1596  and  CG_1597
REMARK  912  A    between atoms: N_1603  and  CA_1604
REMARK  913  A    between atoms: CA_1604  and  C_1605
REMARK  914  A    between atoms: CA_1604  and  CB_1607
REMARK  915  A    between atoms: CB_1607  and  CG_1608
REMARK  916  A    between atoms: CG_1608  and  CD1_1609
REMARK  917  A    between atoms: CG_1608  and  CD2_1610
REMARK  918  A    between atoms: N_1611  and  CA_1612
REMARK  919  A    between atoms: CA_1612  and  C_1613
REMARK  920  A    between atoms: CA_1612  and  CB_1615
REMARK  921  A    between atoms: CB_1615  and  CG2_1616
REMARK  922  A    between atoms: CB_1615  and  CG1_1617
REMARK  923  A    between atoms: N_1618  and  CA_1619
REMARK  924  A    between atoms: CA_1619  and  C_1620
REMARK  925  A    between atoms: N_1622  and  C_1623
REMARK  926  A    between atoms: C_1623  and  C_1624
REMARK  927  A    between atoms: C_1623  and  C_1626
REMARK  928  A    between atoms: C_1626  and  C_1627
REMARK  929  A    between atoms: C_1627  and  C_1628
REMARK  930  A    between atoms: CA_1630  and  C_1631
REMARK  931  A    between atoms: CA_1637  and  C_1638
REMARK  932  A    between atoms: N_1643  and  CA_1644
REMARK  933  A    between atoms: CA_1644  and  C_1645
REMARK  934  A    between atoms: CA_1644  and  CB_1647
REMARK  935  A    between atoms: CB_1647  and  CG_1648
REMARK  936  A    between atoms: N_1654  and  CA_1655
REMARK  937  A    between atoms: CA_1655  and  C_1656
REMARK  938  A    between atoms: CA_1655  and  CB_1658
REMARK  939  A    between atoms: CB_1658  and  CG_1659
REMARK  940  A    between atoms: CG_1659  and  CD_1660
REMARK  941  A    between atoms: N_1663  and  CA_1664
REMARK  942  A    between atoms: CA_1664  and  C_1665
REMARK  943  A    between atoms: CA_1664  and  CB_1667
REMARK  944  A    between atoms: N_1668  and  CA_1669
REMARK  945  A    between atoms: CA_1669  and  C_1670
REMARK  946  A    between atoms: CA_1669  and  CB_1672
REMARK  947  A    between atoms: CB_1672  and  CG_1673
REMARK  948  A    between atoms: N_1676  and  CA_1677
REMARK  949  A    between atoms: CA_1677  and  C_1678
REMARK  950  A    between atoms: CA_1677  and  CB_1680
REMARK  951  A    between atoms: CB_1680  and  OG1_1681
REMARK  952  A    between atoms: CB_1680  and  CG2_1682
REMARK  953  A    between atoms: N_1683  and  CA_1684
REMARK  954  A    between atoms: CA_1684  and  C_1685
REMARK  955  A    between atoms: CA_1684  and  CB_1687
REMARK  956  A    between atoms: CB_1687  and  CG_1688
REMARK  957  A    between atoms: CZ_1693  and  OH_1694
REMARK  958  A    between atoms: N_1695  and  CA_1696
REMARK  959  A    between atoms: CA_1696  and  C_1697
REMARK  960  A    between atoms: CA_1696  and  CB_1699
REMARK  961  A    between atoms: CB_1699  and  CG_1700
REMARK  962  A    between atoms: CG_1700  and  CD_1701
REMARK  963  A    between atoms: N_1704  and  CA_1705
REMARK  964  A    between atoms: CA_1705  and  C_1706
REMARK  965  A    between atoms: CA_1705  and  CB_1708
REMARK  966  A    between atoms: CB_1708  and  CG_1709
REMARK  967  A    between atoms: CG_1709  and  CD_1710
REMARK  968  A    between atoms: N_1713  and  CA_1714
REMARK  969  A    between atoms: CA_1714  and  C_1715
REMARK  970  A    between atoms: CA_1714  and  CB_1717
REMARK  971  A    between atoms: CB_1717  and  OG1_1718
REMARK  972  A    between atoms: CB_1717  and  CG2_1719
REMARK  973  A    between atoms: N_1720  and  CA_1721
REMARK  974  A    between atoms: CA_1721  and  C_1722
REMARK  975  A    between atoms: CA_1721  and  CB_1724
REMARK  976  A    between atoms: CB_1724  and  CG_1725
REMARK  977  A    between atoms: CZ_1730  and  OH_1731
REMARK  978  A    between atoms: N_1732  and  CA_1733
REMARK  979  A    between atoms: CA_1733  and  C_1734
REMARK  980  A    between atoms: CA_1733  and  CB_1736
REMARK  981  A    between atoms: CB_1736  and  SG_1737
REMARK  982  A    between atoms: N_1738  and  C_1739
REMARK  983  A    between atoms: C_1739  and  C_1740
REMARK  984  A    between atoms: C_1739  and  C_1742
REMARK  985  A    between atoms: C_1742  and  C_1743
REMARK  986  A    between atoms: C_1743  and  C_1744
REMARK  987  A    between atoms: C_1744  and  N_1745
REMARK  988  A    between atoms: N_1746  and  CA_1747
REMARK  989  A    between atoms: CA_1747  and  C_1748
REMARK  990  A    between atoms: CA_1747  and  CB_1750
REMARK  991  A    between atoms: CB_1750  and  CG1_1751
REMARK  992  A    between atoms: CB_1750  and  CG2_1752
REMARK  993  A    between atoms: CG1_1751  and  CD1_1753
REMARK  994  A    between atoms: N_1754  and  C_1755
REMARK  995  A    between atoms: C_1755  and  C_1756
REMARK  996  A    between atoms: C_1755  and  C_1758
REMARK  997  A    between atoms: C_1758  and  O_1759
REMARK  998  A    between atoms: N_1760  and  C_1761
REMARK  999  A    between atoms: C_1761  and  C_1762
REMARK  1000  A    between atoms: C_1761  and  C_1764
REMARK  1001  A    between atoms: C_1764  and  C_1765
REMARK  1002  A    between atoms: C_1765  and  C_1766
REMARK  1003  A    between atoms: C_1766  and  N_1767
REMARK  1004  A    between atoms: N_1771  and  C_1772
REMARK  1005  A    between atoms: C_1772  and  C_1773
REMARK  1006  A    between atoms: C_1772  and  C_1775
REMARK  1007  A    between atoms: C_1775  and  C_1776
REMARK  1008  A    between atoms: C_1775  and  C_1777
REMARK  1009  A    between atoms: N_1778  and  C_1779
REMARK  1010  A    between atoms: C_1779  and  C_1780
REMARK  1011  A    between atoms: C_1779  and  C_1782
REMARK  1012  A    between atoms: C_1782  and  C_1783
REMARK  1013  A    between atoms: C_1783  and  C_1784
REMARK  1014  A    between atoms: N_1787  and  C_1788
REMARK  1015  A    between atoms: C_1788  and  C_1789
REMARK  1016  A    between atoms: C_1788  and  C_1791
REMARK  1017  A    between atoms: C_1791  and  C_1792
REMARK  1018  A    between atoms: N_1798  and  C_1799
REMARK  1019  A    between atoms: C_1799  and  C_1800
REMARK  1020  A    between atoms: C_1799  and  C_1802
REMARK  1021  A    between atoms: C_1802  and  O_1803
REMARK  1022  A    between atoms: C_1802  and  C_1804
REMARK  1023  A    between atoms: N_1805  and  C_1806
REMARK  1024  A    between atoms: C_1806  and  C_1807
REMARK  1025  A    between atoms: C_1806  and  C_1809
REMARK  1026  A    between atoms: C_1809  and  C_1810
REMARK  1027  A    between atoms: C_1817  and  C_1818
REMARK  1028  A    between atoms: N_1823  and  C_1824
REMARK  1029  A    between atoms: C_1824  and  C_1825
REMARK  1030  A    between atoms: C_1824  and  C_1827
REMARK  1031  A    between atoms: C_1827  and  C_1828
REMARK  1032  A    between atoms: N_1831  and  C_1832
REMARK  1033  A    between atoms: C_1832  and  C_1833
REMARK  1034  A    between atoms: C_1832  and  C_1835
REMARK  1035  A    between atoms: C_1835  and  C_1836
REMARK  1036  A    between atoms: N_1842  and  C_1843
REMARK  1037  A    between atoms: C_1843  and  C_1844
REMARK  1038  A    between atoms: C_1843  and  C_1846
REMARK  1039  A    between atoms: C_1846  and  C_1847
REMARK  1040  A    between atoms: C_1846  and  C_1848
REMARK  1041  A    between atoms: N_1849  and  C_1850
REMARK  1042  A    between atoms: C_1850  and  C_1851
REMARK  1043  A    between atoms: C_1850  and  C_1853
REMARK  1044  A    between atoms: C_1853  and  O_1854
REMARK  1045  A    between atoms: C_1853  and  C_1855
REMARK  1046  A    between atoms: N_1856  and  C_1857
REMARK  1047  A    between atoms: C_1858  and  C_1859
REMARK  1048  A    between atoms: C_1858  and  C_1861
REMARK  1049  A    between atoms: C_1862  and  C_1863
REMARK  1050  A    between atoms: C_1862  and  C_1864
REMARK  1051  A    between atoms: C_1863  and  C_1865
REMARK  1052  A    between atoms: N_1871  and  C_1872
REMARK  1053  A    between atoms: C_1872  and  C_1873
REMARK  1054  A    between atoms: N_1875  and  CA_1876
REMARK  1055  A    between atoms: CA_1876  and  C_1877
REMARK  1056  A    between atoms: CA_1876  and  CB_1879
REMARK  1057  A    between atoms: N_1880  and  CA_1881
REMARK  1058  A    between atoms: CA_1881  and  C_1882
REMARK  1059  A    between atoms: CA_1881  and  CB_1884
REMARK  1060  A    between atoms: CB_1884  and  CG_1885
REMARK  1061  A    between atoms: CG_1885  and  CD_1886
REMARK  1062  A    between atoms: CD_1886  and  NE_1887
REMARK  1063  A    between atoms: N_1891  and  CA_1892
REMARK  1064  A    between atoms: CA_1892  and  C_1893
REMARK  1065  A    between atoms: CA_1892  and  CB_1895
REMARK  1066  A    between atoms: CB_1895  and  CG_1896
REMARK  1067  A    between atoms: N_1899  and  CA_1900
REMARK  1068  A    between atoms: CA_1900  and  C_1901
REMARK  1069  A    between atoms: CA_1900  and  CB_1903
REMARK  1070  A    between atoms: CB_1903  and  CG_1904
REMARK  1071  A    between atoms: CG_1904  and  CD1_1905
REMARK  1072  A    between atoms: CG_1904  and  CD2_1906
REMARK  1073  A    between atoms: N_1907  and  CA_1908
REMARK  1074  A    between atoms: CA_1908  and  C_1909
REMARK  1075  A    between atoms: CA_1908  and  CB_1911
REMARK  1076  A    between atoms: CB_1911  and  CG1_1912
REMARK  1077  A    between atoms: CB_1911  and  CG2_1913
REMARK  1078  A    between atoms: CG1_1912  and  CD1_1914
REMARK  1079  A    between atoms: N_1915  and  CA_1916
REMARK  1080  A    between atoms: CA_1916  and  C_1917
REMARK  1081  A    between atoms: CA_1916  and  CB_1919
REMARK  1082  A    between atoms: CB_1919  and  OG_1920
REMARK  1083  A    between atoms: N_1921  and  CA_1922
REMARK  1084  A    between atoms: CA_1922  and  C_1923
REMARK  1085  A    between atoms: CA_1922  and  CB_1925
REMARK  1086  A    between atoms: CB_1925  and  CG_1926
REMARK  1087  A    between atoms: CG_1926  and  CD_1927
REMARK  1088  A    between atoms: CD_1927  and  NE_1928
REMARK  1089  A    between atoms: N_1932  and  CA_1933
REMARK  1090  A    between atoms: CA_1933  and  C_1934
REMARK  1091  A    between atoms: CA_1933  and  CB_1936
REMARK  1092  A    between atoms: CB_1936  and  CG_1937
REMARK  1093  A    between atoms: CG_1937  and  CD2_1938
REMARK  1094  A    between atoms: CG_1937  and  CD1_1939
REMARK  1095  A    between atoms: N_1940  and  CA_1941
REMARK  1096  A    between atoms: CA_1941  and  C_1942
REMARK  1097  A    between atoms: CA_1941  and  CB_1944
REMARK  1098  A    between atoms: CB_1944  and  CG_1945
REMARK  1099  A    between atoms: CG_1945  and  CD2_1946
REMARK  1100  A    between atoms: CG_1945  and  CD1_1947
REMARK  1101  A    between atoms: N_1948  and  CA_1949
REMARK  1102  A    between atoms: CA_1949  and  C_1950
REMARK  1103  A    between atoms: CA_1949  and  CB_1952
REMARK  1104  A    between atoms: CB_1952  and  CG_1953
REMARK  1105  A    between atoms: CG_1953  and  CD_1954
REMARK  1106  A    between atoms: CD_1954  and  CE_1955
REMARK  1107  A    between atoms: CE_1955  and  NZ_1956
REMARK  1108  A    between atoms: N_1957  and  CA_1958
REMARK  1109  A    between atoms: CA_1958  and  C_1959
REMARK  1110  A    between atoms: CA_1958  and  CB_1961
REMARK  1111  A    between atoms: CB_1961  and  CG_1962
REMARK  1112  A    between atoms: N_1967  and  CA_1968
REMARK  1113  A    between atoms: CA_1968  and  C_1969
REMARK  1114  A    between atoms: CA_1968  and  CB_1971
REMARK  1115  A    between atoms: CB_1971  and  CG_1972
REMARK  1116  A    between atoms: CA_1976  and  C_1977
REMARK  1117  A    between atoms: N_1982  and  C_1983
REMARK  1118  A    between atoms: C_1983  and  C_1984
REMARK  1119  A    between atoms: C_1983  and  C_1986
REMARK  1120  A    between atoms: C_1986  and  O_1987
REMARK  1121  A    between atoms: N_1988  and  C_1989
REMARK  1122  A    between atoms: C_1989  and  C_1990
REMARK  1123  A    between atoms: C_1989  and  C_1992
REMARK  1124  A    between atoms: C_1992  and  C_1993
REMARK  1125  A    between atoms: C_1993  and  C_1994
REMARK  1126  A    between atoms: N_1997  and  C_1998
REMARK  1127  A    between atoms: C_1998  and  C_1999
REMARK  1128  A    between atoms: C_1998  and  C_2001
REMARK  1129  A    between atoms: C_2001  and  C_2002
REMARK  1130  A    between atoms: C_2002  and  C_2003
REMARK  1131  A    between atoms: C_2003  and  N_2004
REMARK  1132  A    between atoms: C_2009  and  C_2010
REMARK  1133  A    between atoms: N_2015  and  C_2017
REMARK  1134  A    between atoms: C_2016  and  C_2018
REMARK  1135  A    between atoms: C_2016  and  C_2021
REMARK  1136  A    between atoms: C_2021  and  C_2022
REMARK  1137  A    between atoms: C_2022  and  C_2023
REMARK  1138  A    between atoms: C_2023  and  S_2024
REMARK  1139  A    between atoms: C_2023  and  S_2025
REMARK  1140  A    between atoms: S_2024  and  C_2026
REMARK  1141  A    between atoms: S_2025  and  C_2027
REMARK  1142  A    between atoms: N_2028  and  CA_2029
REMARK  1143  A    between atoms: CA_2029  and  C_2030
REMARK  1144  A    between atoms: CA_2029  and  CB_2032
REMARK  1145  A    between atoms: CB_2032  and  CG_2033
REMARK  1146  A    between atoms: CG_2033  and  CD1_2034
REMARK  1147  A    between atoms: CG_2033  and  CD2_2035
REMARK  1148  A    between atoms: N_2036  and  CA_2037
REMARK  1149  A    between atoms: CA_2037  and  C_2038
REMARK  1150  A    between atoms: CA_2037  and  CB_2040
REMARK  1151  A    between atoms: N_2041  and  CA_2042
REMARK  1152  A    between atoms: CA_2042  and  C_2043
REMARK  1153  A    between atoms: CA_2042  and  CB_2045
REMARK  1154  A    between atoms: CB_2045  and  CG_2046
REMARK  1155  A    between atoms: CG_2046  and  CD_2047
REMARK  1156  A    between atoms: N_2050  and  CA_2051
REMARK  1157  A    between atoms: CA_2051  and  C_2052
REMARK  1158  A    between atoms: CA_2051  and  CB_2054
REMARK  1159  A    between atoms: CB_2054  and  CG2_2055
REMARK  1160  A    between atoms: CB_2054  and  CG1_2056
REMARK  1161  A    between atoms: N_2057  and  CA_2058
REMARK  1162  A    between atoms: CA_2058  and  C_2059
REMARK  1163  A    between atoms: CA_2058  and  CB_2061
REMARK  1164  A    between atoms: CB_2061  and  CG_2062
REMARK  1165  A    between atoms: CG_2062  and  CD1_2063
REMARK  1166  A    between atoms: CG_2062  and  CD2_2064
REMARK  1167  A    between atoms: N_2065  and  CA_2066
REMARK  1168  A    between atoms: CA_2066  and  C_2067
REMARK  1169  A    between atoms: CA_2066  and  CB_2069
REMARK  1170  A    between atoms: CB_2069  and  CG_2070
REMARK  1171  A    between atoms: CG_2070  and  CD_2071
REMARK  1172  A    between atoms: N_2074  and  CA_2075
REMARK  1173  A    between atoms: CA_2075  and  C_2076
REMARK  1174  A    between atoms: CA_2075  and  CB_2078
REMARK  1175  A    between atoms: CB_2078  and  CG_2079
REMARK  1176  A    between atoms: CA_2085  and  C_2086
REMARK  1177  A    between atoms: N_2091  and  CA_2092
REMARK  1178  A    between atoms: CA_2092  and  C_2093
REMARK  1179  A    between atoms: CA_2092  and  CB_2095
REMARK  1180  A    between atoms: CB_2095  and  CG_2096
REMARK  1181  A    between atoms: N_2105  and  CA_2106
REMARK  1182  A    between atoms: CA_2106  and  C_2107
REMARK  1183  A    between atoms: CA_2106  and  CB_2109
REMARK  1184  A    between atoms: CB_2109  and  CG1_2110
REMARK  1185  A    between atoms: CB_2109  and  CG2_2111
REMARK  1186  A    between atoms: CG1_2110  and  CD1_2112
REMARK  1187  A    between atoms: N_2113  and  CA_2114
REMARK  1188  A    between atoms: CA_2114  and  C_2115
REMARK  1189  A    between atoms: CA_2114  and  CB_2117
REMARK  1190  A    between atoms: CB_2117  and  OG1_2118
REMARK  1191  A    between atoms: CB_2117  and  CG2_2119
REMARK  1192  A    between atoms: N_2120  and  CA_2121
REMARK  1193  A    between atoms: CA_2121  and  C_2122
REMARK  1194  A    between atoms: CA_2121  and  CB_2124
REMARK  1195  A    between atoms: N_2125  and  CA_2126
REMARK  1196  A    between atoms: CA_2126  and  C_2127
REMARK  1197  A    between atoms: CA_2126  and  CB_2129
REMARK  1198  A    between atoms: CB_2129  and  CG_2130
REMARK  1199  A    between atoms: N_2133  and  CA_2134
REMARK  1200  A    between atoms: CA_2134  and  C_2135
REMARK  1201  A    between atoms: CA_2134  and  CB_2137
REMARK  1202  A    between atoms: CB_2137  and  OG_2138
REMARK  1203  A    between atoms: N_2139  and  CA_2140
REMARK  1204  A    between atoms: CA_2140  and  C_2141
REMARK  1205  A    between atoms: CA_2140  and  CB_2143
REMARK  1206  A    between atoms: CB_2143  and  OG_2144
REMARK  1207  A    between atoms: N_2145  and  C_2146
REMARK  1208  A    between atoms: C_2146  and  C_2147
REMARK  1209  A    between atoms: C_2146  and  C_2149
REMARK  1210  A    between atoms: C_2149  and  C_2150
REMARK  1211  A    between atoms: N_2151  and  CA_2152
REMARK  1212  A    between atoms: CA_2152  and  C_2153
REMARK  1213  A    between atoms: CA_2152  and  CB_2155
REMARK  1214  A    between atoms: CB_2155  and  OG_2156
REMARK  1215  A    between atoms: N_2157  and  CA_2158
REMARK  1216  A    between atoms: CA_2158  and  C_2159
REMARK  1217  A    between atoms: CA_2158  and  CB_2161
REMARK  1218  A    between atoms: CB_2161  and  CG_2162
REMARK  1219  A    between atoms: CG_2162  and  CD_2163
REMARK  1220  A    between atoms: CA_2167  and  C_2168
REMARK  1221  A    between atoms: CA_2174  and  C_2175
REMARK  1222  A    between atoms: N_2180  and  CA_2181
REMARK  1223  A    between atoms: CA_2181  and  C_2182
REMARK  1224  A    between atoms: CA_2181  and  CB_2184
REMARK  1225  A    between atoms: CB_2184  and  OG_2185
REMARK  1226  A    between atoms: N_2186  and  CA_2187
REMARK  1227  A    between atoms: CA_2187  and  C_2188
REMARK  1228  A    between atoms: CA_2187  and  CB_2190
REMARK  1229  A    between atoms: CB_2190  and  CG_2191
REMARK  1230  A    between atoms: N_2200  and  CA_2201
REMARK  1231  A    between atoms: CA_2201  and  C_2202
REMARK  1232  A    between atoms: CA_2201  and  CB_2204
REMARK  1233  A    between atoms: CB_2204  and  CG2_2205
REMARK  1234  A    between atoms: CB_2204  and  CG1_2206
REMARK  1235  A    between atoms: N_2207  and  CA_2208
REMARK  1236  A    between atoms: CA_2208  and  C_2209
REMARK  1237  A    between atoms: CA_2208  and  CB_2211
REMARK  1238  A    between atoms: CB_2211  and  OG1_2212
REMARK  1239  A    between atoms: CB_2211  and  CG2_2213
REMARK  1240  A    between atoms: N_2214  and  CA_2215
REMARK  1241  A    between atoms: CA_2215  and  C_2216
REMARK  1242  A    between atoms: CA_2215  and  CB_2218
REMARK  1243  A    between atoms: CB_2218  and  CG_2219
REMARK  1244  A    between atoms: CG_2219  and  CD_2220
REMARK  1245  A    between atoms: N_2223  and  CA_2224
REMARK  1246  A    between atoms: CA_2224  and  C_2225
REMARK  1247  A    between atoms: CA_2224  and  CB_2227
REMARK  1248  A    between atoms: CB_2227  and  CG_2228
REMARK  1249  A    between atoms: CG_2228  and  SD_2229
REMARK  1250  A    between atoms: SD_2229  and  CE_2230
REMARK  1251  A    between atoms: N_2231  and  CA_2232
REMARK  1252  A    between atoms: CA_2232  and  C_2233
REMARK  1253  A    between atoms: CA_2232  and  CB_2235
REMARK  1254  A    between atoms: CB_2235  and  CG_2236
REMARK  1255  A    between atoms: CG_2236  and  CD1_2237
REMARK  1256  A    between atoms: CG_2236  and  CD2_2238
REMARK  1257  A    between atoms: N_2239  and  CA_2240
REMARK  1258  A    between atoms: CA_2240  and  C_2241
REMARK  1259  A    between atoms: CA_2240  and  CB_2243
REMARK  1260  A    between atoms: CB_2243  and  CG_2244
REMARK  1261  A    between atoms: CG_2244  and  CD1_2245
REMARK  1262  A    between atoms: CG_2244  and  CD2_2246
REMARK  1263  A    between atoms: N_2247  and  CA_2248
REMARK  1264  A    between atoms: CA_2248  and  C_2249
REMARK  1265  A    between atoms: CA_2248  and  CB_2251
REMARK  1266  A    between atoms: CB_2251  and  CG_2252
REMARK  1267  A    between atoms: CG_2252  and  CD_2253
REMARK  1268  A    between atoms: N_2256  and  CA_2257
REMARK  1269  A    between atoms: CA_2257  and  C_2258
REMARK  1270  A    between atoms: CA_2257  and  CB_2260
REMARK  1271  A    between atoms: CB_2260  and  CG_2261
REMARK  1272  A    between atoms: CG_2261  and  CD_2262
REMARK  1273  A    between atoms: CD_2262  and  CE_2263
REMARK  1274  A    between atoms: CE_2263  and  NZ_2264
REMARK  1275  A    between atoms: N_2265  and  C_2266
REMARK  1276  A    between atoms: C_2266  and  C_2267
REMARK  1277  A    between atoms: C_2266  and  C_2269
REMARK  1278  A    between atoms: C_2269  and  C_2270
REMARK  1279  A    between atoms: N_2271  and  CA_2272
REMARK  1280  A    between atoms: CA_2272  and  C_2273
REMARK  1281  A    between atoms: CA_2272  and  CB_2275
REMARK  1282  A    between atoms: CB_2275  and  CG_2276
REMARK  1283  A    between atoms: CG_2276  and  CD2_2277
REMARK  1284  A    between atoms: CG_2276  and  CD1_2278
REMARK  1285  A    between atoms: N_2279  and  CA_2280
REMARK  1286  A    between atoms: CA_2280  and  C_2281
REMARK  1287  A    between atoms: CA_2280  and  CB_2283
REMARK  1288  A    between atoms: CB_2283  and  CG_2284
REMARK  1289  A    between atoms: N_2293  and  CA_2294
REMARK  1290  A    between atoms: CA_2294  and  C_2295
REMARK                            x       y       z     vdW  Elec       q    Type
REMARK                         _______ _______ _______ _____ _____    ______ ____
ROOT
ATOM      1  C   UNL     8     -53.876  29.670   6.134  0.00  0.00    +0.238 C 
ATOM      2  O   UNL     8     -54.016  28.516   5.714  0.00  0.00    -0.238 OA
ENDROOT
BRANCH   2   4
ATOM      3  C   UNL     8     -53.596  29.689   6.198  0.00  0.00    +0.238 C 
ATOM      4  O   UNL     8     -53.244  28.543   5.889  0.00  0.00    -0.238 OA
ENDBRANCH   2   4
TORSDOF 1
REMARK  Name = /Users/wangyang/Desktop/Breast_cancer_brain_metastasis/wang_Gene/AIDD/15_Protein_ligand_docking/data_7ztl/protein.pdb
REMARK  1290 active torsions:
REMARK  status: ('A' for Active; 'I' for Inactive)
REMARK    1  A    between atoms: N_1  and  CA_2
REMARK    2  A    between atoms: CA_2  and  C_3
REMARK    3  A    between atoms: N_5  and  CA_6
REMARK    4  A    between atoms: CA_6  and  C_7
REMARK    5  A    between atoms: CA_6  and  CB_9
REMARK    6  A    between atoms: N_10  and  CA_11
REMARK    7  A    between atoms: CA_11  and  C_12
REMARK    8  A    between atoms: CA_11  and  CB_14
REMARK    9  A    between atoms: CB_14  and  CG_15
REMARK   10  A    between atoms: N_24  and  CA_25
REMARK   11  A    between atoms: CA_25  and  C_26
REMARK   12  A    between atoms: CA_25  and  CB_28
REMARK   13  A    between atoms: N_29  and  CA_30
REMARK   14  A    between atoms: CA_30  and  C_31
REMARK   15  A    between atoms: CA_30  and  CB_33
REMARK   16  A    between atoms: CB_33  and  CG_34
REMARK   17  A    between atoms: CG_34  and  CD1_35
REMARK   18  A    between atoms: CG_34  and  CD2_36
REMARK   19  A    between atoms: N_37  and  CA_38
REMARK   20  A    between atoms: CA_38  and  C_39
REMARK   21  A    between atoms: CA_38  and  CB_41
REMARK   22  A    between atoms: CB_41  and  CG_42
REMARK   23  A    between atoms: CG_42  and  CD_43
REMARK   24  A    between atoms: N_46  and  CA_47
REMARK   25  A    between atoms: CA_47  and  C_48
REMARK   26  A    between atoms: CA_47  and  CB_50
REMARK   27  A    between atoms: CB_50  and  CG_51
REMARK   28  A    between atoms: N_54  and  CA_55
REMARK   29  A    between atoms: CA_55  and  C_56
REMARK   30  A    between atoms: CA_55  and  CB_58
REMARK   31  A    between atoms: CB_58  and  CG_59
REMARK   32  A    between atoms: N_65  and  CA_66
REMARK   33  A    between atoms: CA_66  and  C_67
REMARK   34  A    between atoms: CA_66  and  CB_69
REMARK   35  A    between atoms: CB_69  and  CG_70
REMARK   36  A    between atoms: CG_70  and  CD_71
REMARK   37  A    between atoms: N_74  and  CA_75
REMARK   38  A    between atoms: CA_75  and  C_76
REMARK   39  A    between atoms: CA_75  and  CB_78
REMARK   40  A    between atoms: CB_78  and  CG1_79
REMARK   41  A    between atoms: CB_78  and  CG2_80
REMARK   42  A    between atoms: CG1_79  and  CD1_81
REMARK   43  A    between atoms: N_82  and  CA_83
REMARK   44  A    between atoms: CA_83  and  C_84
REMARK   45  A    between atoms: N_86  and  CA_87
REMARK   46  A    between atoms: CA_87  and  C_88
REMARK   47  A    between atoms: CA_87  and  CB_90
REMARK   48  A    between atoms: CB_90  and  CG_91
REMARK   49  A    between atoms: CG_91  and  CD_92
REMARK   50  A    between atoms: CD_92  and  NE_93
REMARK   51  A    between atoms: CA_98  and  C_99
REMARK   52  A    between atoms: N_104  and  CA_105
REMARK   53  A    between atoms: CA_105  and  C_106
REMARK   54  A    between atoms: CA_105  and  CB_108
REMARK   55  A    between atoms: CB_108  and  CG_109
REMARK   56  A    between atoms: CG_109  and  CD1_110
REMARK   57  A    between atoms: CG_109  and  CD2_111
REMARK   58  A    between atoms: N_112  and  CA_113
REMARK   59  A    between atoms: CA_113  and  C_114
REMARK   60  A    between atoms: N_116  and  C_117
REMARK   61  A    between atoms: C_117  and  C_118
REMARK   62  A    between atoms: C_117  and  C_120
REMARK   63  A    between atoms: C_120  and  C_121
REMARK   64  A    between atoms: C_121  and  C_122
REMARK   65  A    between atoms: N_123  and  CA_124
REMARK   66  A    between atoms: CA_124  and  C_125
REMARK   67  A    between atoms: N_127  and  CA_128
REMARK   68  A    between atoms: CA_128  and  C_129
REMARK   69  A    between atoms: CA_128  and  CB_131
REMARK   70  A    between atoms: CB_131  and  CG_132
REMARK   71  A    between atoms: CG_132  and  CD_133
REMARK   72  A    between atoms: CD_133  and  CE_134
REMARK   73  A    between atoms: CE_134  and  NZ_135
REMARK   74  A    between atoms: N_136  and  CA_137
REMARK   75  A    between atoms: CA_137  and  C_138
REMARK   76  A    between atoms: CA_137  and  CB_140
REMARK   77  A    between atoms: CB_140  and  CG_141
REMARK   78  A    between atoms: N_147  and  CA_148
REMARK   79  A    between atoms: CA_148  and  C_149
REMARK   80  A    between atoms: N_151  and  CA_152
REMARK   81  A    between atoms: CA_152  and  C_153
REMARK   82  A    between atoms: CA_152  and  CB_155
REMARK   83  A    between atoms: CB_155  and  CG_156
REMARK   84  A    between atoms: N_159  and  CA_160
REMARK   85  A    between atoms: CA_160  and  C_161
REMARK   86  A    between atoms: CA_160  and  CB_163
REMARK   87  A    between atoms: CB_163  and  CG1_164
REMARK   88  A    between atoms: CB_163  and  CG2_165
REMARK   89  A    between atoms: N_166  and  CA_167
REMARK   90  A    between atoms: CA_167  and  C_168
REMARK   91  A    between atoms: CA_167  and  CB_170
REMARK   92  A    between atoms: CB_170  and  CG_171
REMARK   93  A    between atoms: CZ_176  and  OH_177
REMARK   94  A    between atoms: N_178  and  CA_179
REMARK   95  A    between atoms: CA_179  and  C_180
REMARK   96  A    between atoms: CA_179  and  CB_182
REMARK   97  A    between atoms: CB_182  and  CG_183
REMARK   98  A    between atoms: CG_183  and  CD1_184
REMARK   99  A    between atoms: CG_183  and  CD2_185
REMARK  100  A    between atoms: N_186  and  CA_187
REMARK  101  A    between atoms: CA_187  and  C_188
REMARK  102  A    between atoms: CA_187  and  CB_190
REMARK  103  A    between atoms: N_191  and  CA_192
REMARK  104  A    between atoms: CA_192  and  C_193
REMARK  105  A    between atoms: CA_192  and  CB_195
REMARK  106  A    between atoms: CB_195  and  CG_196
REMARK  107  A    between atoms: CG_196  and  CD_197
REMARK  108  A    between atoms: CD_197  and  NE_198
REMARK  109  A    between atoms: N_202  and  CA_203
REMARK  110  A    between atoms: CA_203  and  C_204
REMARK  111  A    between atoms: CA_203  and  CB_206
REMARK  112  A    between atoms: CB_206  and  CG_207
REMARK  113  A    between atoms: CG_207  and  CD_208
REMARK  114  A    between atoms: N_211  and  CA_212
REMARK  115  A    between atoms: CA_212  and  C_213
REMARK  116  A    between atoms: CA_212  and  CB_215
REMARK  117  A    between atoms: CB_215  and  CG_216
REMARK  118  A    between atoms: CG_216  and  CD_217
REMARK  119  A    between atoms: CD_217  and  CE_218
REMARK  120  A    between atoms: CE_218  and  NZ_219
REMARK  121  A    between atoms: N_220  and  CA_221
REMARK  122  A    between atoms: CA_221  and  C_222
REMARK  123  A    between atoms: CA_221  and  CB_224
REMARK  124  A    between atoms: N_225  and  CA_226
REMARK  125  A    between atoms: CA_226  and  C_227
REMARK  126  A    between atoms: CA_226  and  CB_229
REMARK  127  A    between atoms: CB_229  and  OG_230
REMARK  128  A    between atoms: N_231  and  CA_232
REMARK  129  A    between atoms: CA_232  and  C_233
REMARK  130  A    between atoms: CA_232  and  CB_235
REMARK  131  A    between atoms: CB_235  and  CG_236
REMARK  132  A    between atoms: CG_236  and  CD_237
REMARK  133  A    between atoms: CD_237  and  CE_238
REMARK  134  A    between atoms: CE_238  and  NZ_239
REMARK  135  A    between atoms: N_240  and  CA_241
REMARK  136  A    between atoms: CA_241  and  C_242
REMARK  137  A    between atoms: CA_241  and  CB_244
REMARK  138  A    between atoms: CB_244  and  CG_245
REMARK  139  A    between atoms: N_251  and  CA_252
REMARK  140  A    between atoms: CA_252  and  C_253
REMARK  141  A    between atoms: CA_252  and  CB_255
REMARK  142  A    between atoms: CB_255  and  CG1_256
REMARK  143  A    between atoms: CB_255  and  CG2_257
REMARK  144  A    between atoms: CG1_256  and  CD1_258
REMARK  145  A    between atoms: N_259  and  CA_260
REMARK  146  A    between atoms: CA_260  and  C_261
REMARK  147  A    between atoms: CA_260  and  CB_263
REMARK  148  A    between atoms: CB_263  and  CG_264
REMARK  149  A    between atoms: CG_264  and  CD1_265
REMARK  150  A    between atoms: CG_264  and  CD2_266
REMARK  151  A    between atoms: N_267  and  CA_268
REMARK  152  A    between atoms: CA_268  and  C_269
REMARK  153  A    between atoms: CA_268  and  CB_271
REMARK  154  A    between atoms: N_272  and  CA_273
REMARK  155  A    between atoms: CA_273  and  C_274
REMARK  156  A    between atoms: CA_273  and  CB_276
REMARK  157  A    between atoms: CB_276  and  CG_277
REMARK  158  A    between atoms: CG_277  and  CD2_278
REMARK  159  A    between atoms: CG_277  and  CD1_279
REMARK  160  A    between atoms: N_280  and  CA_281
REMARK  161  A    between atoms: CA_281  and  C_282
REMARK  162  A    between atoms: CA_281  and  CB_284
REMARK  163  A    between atoms: CB_284  and  CG_285
REMARK  164  A    between atoms: CG_285  and  CD_286
REMARK  165  A    between atoms: CD_286  and  CE_287
REMARK  166  A    between atoms: CE_287  and  NZ_288
REMARK  167  A    between atoms: N_289  and  CA_290
REMARK  168  A    between atoms: CA_290  and  C_291
REMARK  169  A    between atoms: CA_290  and  CB_293
REMARK  170  A    between atoms: CB_293  and  CG2_294
REMARK  171  A    between atoms: CB_293  and  CG1_295
REMARK  172  A    between atoms: N_296  and  CA_297
REMARK  173  A    between atoms: CA_297  and  C_298
REMARK  174  A    between atoms: CA_297  and  CB_300
REMARK  175  A    between atoms: CB_300  and  CG_301
REMARK  176  A    between atoms: CG_301  and  CD1_302
REMARK  177  A    between atoms: CG_301  and  CD2_303
REMARK  178  A    between atoms: N_304  and  CA_305
REMARK  179  A    between atoms: CA_305  and  C_306
REMARK  180  A    between atoms: CA_305  and  CB_308
REMARK  181  A    between atoms: CB_308  and  CG_309
REMARK  182  A    between atoms: N_315  and  CA_316
REMARK  183  A    between atoms: CA_316  and  C_317
REMARK  184  A    between atoms: CA_316  and  CB_319
REMARK  185  A    between atoms: CB_319  and  CG_320
REMARK  186  A    between atoms: CG_320  and  CD_321
REMARK  187  A    between atoms: CD_321  and  CE_322
REMARK  188  A    between atoms: CE_322  and  NZ_323
REMARK  189  A    between atoms: N_324  and  CA_325
REMARK  190  A    between atoms: CA_325  and  C_326
REMARK  191  A    between atoms: CA_325  and  CB_328
REMARK  192  A    between atoms: N_329  and  CA_330
REMARK  193  A    between atoms: CA_330  and  C_331
REMARK  194  A    between atoms: CA_330  and  CB_333
REMARK  195  A    between atoms: CB_333  and  CG_334
REMARK  196  A    between atoms: CG_334  and  CD_335
REMARK  197  A    between atoms: N_338  and  CA_339
REMARK  198  A    between atoms: CA_339  and  C_340
REMARK  199  A    between atoms: CA_339  and  CB_342
REMARK  200  A    between atoms: CB_342  and  CG_343
REMARK  201  A    between atoms: CG_343  and  CD1_344
REMARK  202  A    between atoms: CG_343  and  CD2_345
REMARK  203  A    between atoms: N_346  and  CA_347
REMARK  204  A    between atoms: CA_347  and  C_348
REMARK  205  A    between atoms: CA_347  and  CB_350
REMARK  206  A    between atoms: CB_350  and  CG_351
REMARK  207  A    between atoms: CG_351  and  CD_352
REMARK  208  A    between atoms: N_355  and  C_356
REMARK  209  A    between atoms: C_356  and  C_357
REMARK  210  A    between atoms: C_356  and  C_359
REMARK  211  A    between atoms: C_359  and  C_360
REMARK  212  A    between atoms: N_361  and  CA_362
REMARK  213  A    between atoms: CA_362  and  C_363
REMARK  214  A    between atoms: CA_362  and  CB_365
REMARK  215  A    between atoms: N_366  and  CA_367
REMARK  216  A    between atoms: CA_367  and  C_368
REMARK  217  A    between atoms: N_370  and  CA_371
REMARK  218  A    between atoms: CA_371  and  C_372
REMARK  219  A    between atoms: CA_371  and  CB_374
REMARK  220  A    between atoms: CB_374  and  CG2_375
REMARK  221  A    between atoms: CB_374  and  CG1_376
REMARK  222  A    between atoms: N_377  and  CA_378
REMARK  223  A    between atoms: CA_378  and  C_379
REMARK  224  A    between atoms: CA_378  and  CB_381
REMARK  225  A    between atoms: CB_381  and  CG_382
REMARK  226  A    between atoms: CG_382  and  CD_383
REMARK  227  A    between atoms: N_386  and  CA_387
REMARK  228  A    between atoms: CA_387  and  C_388
REMARK  229  A    between atoms: CA_387  and  CB_390
REMARK  230  A    between atoms: CB_390  and  CG_391
REMARK  231  A    between atoms: N_396  and  CA_397
REMARK  232  A    between atoms: CA_397  and  C_398
REMARK  233  A    between atoms: CA_397  and  CB_400
REMARK  234  A    between atoms: CB_400  and  CG_401
REMARK  235  A    between atoms: CG_401  and  CD_402
REMARK  236  A    between atoms: N_405  and  CA_406
REMARK  237  A    between atoms: CA_406  and  C_407
REMARK  238  A    between atoms: CA_406  and  CB_409
REMARK  239  A    between atoms: CB_409  and  CG_410
REMARK  240  A    between atoms: CG_410  and  CD2_411
REMARK  241  A    between atoms: CG_410  and  CD1_412
REMARK  242  A    between atoms: N_413  and  CA_414
REMARK  243  A    between atoms: CA_414  and  C_415
REMARK  244  A    between atoms: CA_414  and  CB_417
REMARK  245  A    between atoms: CB_417  and  CG_418
REMARK  246  A    between atoms: CG_418  and  CD_419
REMARK  247  A    between atoms: CD_419  and  NE_420
REMARK  248  A    between atoms: N_424  and  CA_425
REMARK  249  A    between atoms: CA_425  and  C_426
REMARK  250  A    between atoms: CA_425  and  CB_428
REMARK  251  A    between atoms: CB_428  and  CG_429
REMARK  252  A    between atoms: CG_429  and  CD_430
REMARK  253  A    between atoms: CD_430  and  NE_431
REMARK  254  A    between atoms: N_435  and  CA_436
REMARK  255  A    between atoms: CA_436  and  C_437
REMARK  256  A    between atoms: CA_436  and  CB_439
REMARK  257  A    between atoms: CB_439  and  CG_440
REMARK  258  A    between atoms: CG_440  and  CD_441
REMARK  259  A    between atoms: N_444  and  CA_445
REMARK  260  A    between atoms: CA_445  and  C_446
REMARK  261  A    between atoms: CA_445  and  CB_448
REMARK  262  A    between atoms: CB_448  and  CG1_449
REMARK  263  A    between atoms: CB_448  and  CG2_450
REMARK  264  A    between atoms: N_451  and  C_452
REMARK  265  A    between atoms: C_452  and  C_453
REMARK  266  A    between atoms: C_452  and  C_455
REMARK  267  A    between atoms: C_455  and  C_456
REMARK  268  A    between atoms: N_457  and  CA_458
REMARK  269  A    between atoms: CA_458  and  C_459
REMARK  270  A    between atoms: CA_458  and  CB_461
REMARK  271  A    between atoms: CB_461  and  CG1_462
REMARK  272  A    between atoms: CB_461  and  CG2_463
REMARK  273  A    between atoms: CG1_462  and  CD1_464
REMARK  274  A    between atoms: N_465  and  CA_466
REMARK  275  A    between atoms: CA_466  and  C_467
REMARK  276  A    between atoms: CA_466  and  CB_469
REMARK  277  A    between atoms: CB_469  and  CG_470
REMARK  278  A    between atoms: CG_470  and  CD_471
REMARK  279  A    between atoms: N_474  and  C_475
REMARK  280  A    between atoms: C_475  and  C_476
REMARK  281  A    between atoms: C_475  and  C_478
REMARK  282  A    between atoms: C_478  and  O_479
REMARK  283  A    between atoms: N_480  and  C_481
REMARK  284  A    between atoms: C_481  and  C_482
REMARK  285  A    between atoms: C_481  and  C_484
REMARK  286  A    between atoms: C_484  and  C_485
REMARK  287  A    between atoms: N_490  and  C_491
REMARK  288  A    between atoms: C_491  and  C_492
REMARK  289  A    between atoms: C_491  and  C_494
REMARK  290  A    between atoms: C_494  and  C_495
REMARK  291  A    between atoms: C_495  and  C_496
REMARK  292  A    between atoms: C_495  and  C_497
REMARK  293  A    between atoms: N_498  and  C_499
REMARK  294  A    between atoms: C_499  and  C_500
REMARK  295  A    between atoms: C_499  and  C_502
REMARK  296  A    between atoms: C_502  and  C_503
REMARK  297  A    between atoms: C_503  and  C_504
REMARK  298  A    between atoms: C_504  and  N_505
REMARK  299  A    between atoms: N_509  and  C_510
REMARK  300  A    between atoms: C_510  and  C_511
REMARK  301  A    between atoms: C_510  and  C_513
REMARK  302  A    between atoms: C_513  and  C_514
REMARK  303  A    between atoms: C_520  and  C_521
REMARK  304  A    between atoms: N_526  and  C_527
REMARK  305  A    between atoms: C_527  and  C_528
REMARK  306  A    between atoms: C_527  and  C_530
REMARK  307  A    between atoms: C_530  and  C_531
REMARK  308  A    between atoms: N_534  and  C_535
REMARK  309  A    between atoms: C_535  and  C_536
REMARK  310  A    between atoms: C_535  and  C_538
REMARK  311  A    between atoms: C_538  and  C_539
REMARK  312  A    between atoms: C_538  and  C_540
REMARK  313  A    between atoms: C_539  and  C_541
REMARK  314  A    between atoms: N_542  and  C_543
REMARK  315  A    between atoms: C_543  and  C_544
REMARK  316  A    between atoms: C_543  and  C_546
REMARK  317  A    between atoms: C_546  and  C_547
REMARK  318  A    between atoms: C_547  and  C_548
REMARK  319  A    between atoms: C_547  and  C_549
REMARK  320  A    between atoms: N_550  and  C_551
REMARK  321  A    between atoms: C_551  and  C_552
REMARK  322  A    between atoms: C_551  and  C_554
REMARK  323  A    between atoms: C_554  and  C_555
REMARK  324  A    between atoms: C_555  and  C_556
REMARK  325  A    between atoms: C_556  and  N_557
REMARK  326  A    between atoms: N_561  and  C_562
REMARK  327  A    between atoms: C_562  and  C_567
REMARK  328  A    between atoms: C_563  and  C_564
REMARK  329  A    between atoms: C_568  and  C_569
REMARK  330  A    between atoms: C_568  and  C_571
REMARK  331  A    between atoms: C_569  and  C_572
REMARK  332  A    between atoms: C_569  and  C_573
REMARK  333  A    between atoms: C_570  and  C_573
REMARK  334  A    between atoms: N_574  and  CA_575
REMARK  335  A    between atoms: CA_575  and  C_576
REMARK  336  A    between atoms: CA_575  and  CB_578
REMARK  337  A    between atoms: CB_578  and  CG_579
REMARK  338  A    between atoms: CZ_584  and  OH_585
REMARK  339  A    between atoms: N_586  and  CA_587
REMARK  340  A    between atoms: CA_587  and  C_588
REMARK  341  A    between atoms: N_590  and  CA_591
REMARK  342  A    between atoms: CA_591  and  C_592
REMARK  343  A    between atoms: CA_591  and  CB_594
REMARK  344  A    between atoms: CB_594  and  CG_595
REMARK  345  A    between atoms: CZ_600  and  OH_601
REMARK  346  A    between atoms: N_602  and  CA_603
REMARK  347  A    between atoms: CA_603  and  C_604
REMARK  348  A    between atoms: CA_603  and  CB_606
REMARK  349  A    between atoms: CB_606  and  CG_607
REMARK  350  A    between atoms: N_613  and  CA_614
REMARK  351  A    between atoms: CA_614  and  C_615
REMARK  352  A    between atoms: CA_614  and  CB_617
REMARK  353  A    between atoms: CB_617  and  CG_618
REMARK  354  A    between atoms: N_623  and  CA_624
REMARK  355  A    between atoms: CA_624  and  C_625
REMARK  356  A    between atoms: CA_624  and  CB_627
REMARK  357  A    between atoms: CB_627  and  CG_628
REMARK  358  A    between atoms: N_631  and  CA_632
REMARK  359  A    between atoms: CA_632  and  C_633
REMARK  360  A    between atoms: CA_632  and  CB_635
REMARK  361  A    between atoms: N_636  and  CA_637
REMARK  362  A    between atoms: CA_637  and  C_638
REMARK  363  A    between atoms: CA_637  and  CB_640
REMARK  364  A    between atoms: CB_640  and  OG1_641
REMARK  365  A    between atoms: CB_640  and  CG2_642
REMARK  366  A    between atoms: N_643  and  CA_644
REMARK  367  A    between atoms: CA_644  and  C_645
REMARK  368  A    between atoms: CA_644  and  CB_647
REMARK  369  A    between atoms: CB_647  and  CG_648
REMARK  370  A    between atoms: CG_648  and  CD_649
REMARK  371  A    between atoms: CD_649  and  NE_650
REMARK  372  A    between atoms: N_654  and  CA_655
REMARK  373  A    between atoms: CA_655  and  C_656
REMARK  374  A    between atoms: CA_655  and  CB_658
REMARK  375  A    between atoms: CB_658  and  CG1_659
REMARK  376  A    between atoms: CB_658  and  CG2_660
REMARK  377  A    between atoms: N_661  and  CA_662
REMARK  378  A    between atoms: CA_662  and  C_663
REMARK  379  A    between atoms: CA_662  and  CB_665
REMARK  380  A    between atoms: CB_665  and  CG_666
REMARK  381  A    between atoms: CZ_671  and  OH_672
REMARK  382  A    between atoms: N_673  and  CA_674
REMARK  383  A    between atoms: CA_674  and  C_675
REMARK  384  A    between atoms: CA_674  and  CB_677
REMARK  385  A    between atoms: CB_677  and  CG_678
REMARK  386  A    between atoms: CG_678  and  CD2_679
REMARK  387  A    between atoms: CG_678  and  CD1_680
REMARK  388  A    between atoms: N_681  and  CA_682
REMARK  389  A    between atoms: CA_682  and  C_683
REMARK  390  A    between atoms: CA_682  and  CB_685
REMARK  391  A    between atoms: CB_685  and  CG1_686
REMARK  392  A    between atoms: CB_685  and  CG2_687
REMARK  393  A    between atoms: CG1_686  and  CD1_688
REMARK  394  A    between atoms: N_689  and  CA_690
REMARK  395  A    between atoms: CA_690  and  C_691
REMARK  396  A    between atoms: CA_690  and  CB_693
REMARK  397  A    between atoms: CB_693  and  CG_694
REMARK  398  A    between atoms: CG_694  and  CD2_695
REMARK  399  A    between atoms: CG_694  and  CD1_696
REMARK  400  A    between atoms: N_697  and  CA_698
REMARK  401  A    between atoms: CA_698  and  C_699
REMARK  402  A    between atoms: CA_698  and  CB_701
REMARK  403  A    between atoms: CB_701  and  CG_702
REMARK  404  A    between atoms: CG_702  and  CD_703
REMARK  405  A    between atoms: N_706  and  CA_707
REMARK  406  A    between atoms: CA_707  and  C_708
REMARK  407  A    between atoms: CA_707  and  CB_710
REMARK  408  A    between atoms: CB_710  and  CG_711
REMARK  409  A    between atoms: CZ_716  and  OH_717
REMARK  410  A    between atoms: N_718  and  CA_719
REMARK  411  A    between atoms: CA_719  and  C_720
REMARK  412  A    between atoms: CA_719  and  CB_722
REMARK  413  A    between atoms: CA_724  and  C_725
REMARK  414  A    between atoms: N_730  and  CA_731
REMARK  415  A    between atoms: CA_731  and  C_732
REMARK  416  A    between atoms: CA_731  and  CB_734
REMARK  417  A    between atoms: CB_734  and  CG_735
REMARK  418  A    between atoms: CG_735  and  CD1_736
REMARK  419  A    between atoms: CG_735  and  CD2_737
REMARK  420  A    between atoms: N_738  and  CA_739
REMARK  421  A    between atoms: CA_739  and  C_740
REMARK  422  A    between atoms: N_742  and  CA_743
REMARK  423  A    between atoms: CA_743  and  C_744
REMARK  424  A    between atoms: CA_743  and  CB_746
REMARK  425  A    between atoms: CB_746  and  OG1_747
REMARK  426  A    between atoms: CB_746  and  CG2_748
REMARK  427  A    between atoms: N_749  and  CA_750
REMARK  428  A    between atoms: CA_750  and  C_751
REMARK  429  A    between atoms: CA_750  and  CB_753
REMARK  430  A    between atoms: CB_753  and  CG2_754
REMARK  431  A    between atoms: CB_753  and  CG1_755
REMARK  432  A    between atoms: N_756  and  CA_757
REMARK  433  A    between atoms: CA_757  and  C_758
REMARK  434  A    between atoms: CA_757  and  CB_760
REMARK  435  A    between atoms: CB_760  and  CG_761
REMARK  436  A    between atoms: CZ_766  and  OH_767
REMARK  437  A    between atoms: N_768  and  C_769
REMARK  438  A    between atoms: C_769  and  C_770
REMARK  439  A    between atoms: C_769  and  C_772
REMARK  440  A    between atoms: C_772  and  C_773
REMARK  441  A    between atoms: N_774  and  CA_775
REMARK  442  A    between atoms: CA_775  and  C_776
REMARK  443  A    between atoms: CA_775  and  CB_778
REMARK  444  A    between atoms: CB_778  and  CG_779
REMARK  445  A    between atoms: CG_779  and  CD_780
REMARK  446  A    between atoms: N_783  and  CA_784
REMARK  447  A    between atoms: CA_784  and  C_785
REMARK  448  A    between atoms: CA_784  and  CB_787
REMARK  449  A    between atoms: CB_787  and  CG_788
REMARK  450  A    between atoms: CG_788  and  CD2_789
REMARK  451  A    between atoms: CG_788  and  CD1_790
REMARK  452  A    between atoms: N_791  and  CA_792
REMARK  453  A    between atoms: CA_792  and  C_793
REMARK  454  A    between atoms: CA_792  and  CB_795
REMARK  455  A    between atoms: CB_795  and  CG_796
REMARK  456  A    between atoms: CG_796  and  CD_797
REMARK  457  A    between atoms: N_800  and  CA_801
REMARK  458  A    between atoms: CA_801  and  C_802
REMARK  459  A    between atoms: CA_801  and  CB_804
REMARK  460  A    between atoms: CB_804  and  CG_805
REMARK  461  A    between atoms: CG_805  and  CD_806
REMARK  462  A    between atoms: CD_806  and  CE_807
REMARK  463  A    between atoms: CE_807  and  NZ_808
REMARK  464  A    between atoms: N_809  and  CA_810
REMARK  465  A    between atoms: CA_810  and  C_811
REMARK  466  A    between atoms: CA_810  and  CB_813
REMARK  467  A    between atoms: CB_813  and  CG_814
REMARK  468  A    between atoms: CG_814  and  CD1_815
REMARK  469  A    between atoms: CG_814  and  CD2_816
REMARK  470  A    between atoms: N_817  and  CA_818
REMARK  471  A    between atoms: CA_818  and  C_819
REMARK  472  A    between atoms: CA_818  and  CB_821
REMARK  473  A    between atoms: CB_821  and  OG_822
REMARK  474  A    between atoms: N_823  and  CA_824
REMARK  475  A    between atoms: CA_824  and  C_825
REMARK  476  A    between atoms: CA_824  and  CB_827
REMARK  477  A    between atoms: CB_827  and  CG_828
REMARK  478  A    between atoms: CG_828  and  CD_829
REMARK  479  A    between atoms: CD_829  and  CE_830
REMARK  480  A    between atoms: CE_830  and  NZ_831
REMARK  481  A    between atoms: N_832  and  CA_833
REMARK  482  A    between atoms: CA_833  and  C_834
REMARK  483  A    between atoms: CA_833  and  CB_836
REMARK  484  A    between atoms: CB_836  and  CG_837
REMARK  485  A    between atoms: N_843  and  CA_844
REMARK  486  A    between atoms: CA_844  and  C_845
REMARK  487  A    between atoms: CA_844  and  CB_847
REMARK  488  A    between atoms: CB_847  and  CG_848
REMARK  489  A    between atoms: N_851  and  CA_852
REMARK  490  A    between atoms: CA_852  and  C_853
REMARK  491  A    between atoms: CA_852  and  CB_855
REMARK  492  A    between atoms: CB_855  and  CG_856
REMARK  493  A    between atoms: CG_856  and  CD_857
REMARK  494  A    between atoms: N_860  and  CA_861
REMARK  495  A    between atoms: CA_861  and  C_862
REMARK  496  A    between atoms: CA_861  and  CB_864
REMARK  497  A    between atoms: CB_864  and  CG_865
REMARK  498  A    between atoms: CG_865  and  CD_866
REMARK  499  A    between atoms: N_869  and  CA_870
REMARK  500  A    between atoms: CA_870  and  C_871
REMARK  501  A    between atoms: CA_870  and  CB_873
REMARK  502  A    between atoms: CB_873  and  CG_874
REMARK  503  A    between atoms: CG_874  and  CD_875
REMARK  504  A    between atoms: CD_875  and  NE_876
REMARK  505  A    between atoms: N_880  and  CA_881
REMARK  506  A    between atoms: CA_881  and  C_882
REMARK  507  A    between atoms: CA_881  and  CB_884
REMARK  508  A    between atoms: CB_884  and  OG1_885
REMARK  509  A    between atoms: CB_884  and  CG2_886
REMARK  510  A    between atoms: N_887  and  CA_888
REMARK  511  A    between atoms: CA_888  and  C_889
REMARK  512  A    between atoms: CA_888  and  CB_891
REMARK  513  A    between atoms: N_892  and  CA_893
REMARK  514  A    between atoms: CA_893  and  C_894
REMARK  515  A    between atoms: CA_893  and  CB_896
REMARK  516  A    between atoms: CB_896  and  OG1_897
REMARK  517  A    between atoms: CB_896  and  CG2_898
REMARK  518  A    between atoms: N_899  and  CA_900
REMARK  519  A    between atoms: CA_900  and  C_901
REMARK  520  A    between atoms: CA_900  and  CB_903
REMARK  521  A    between atoms: CB_903  and  CG_904
REMARK  522  A    between atoms: CZ_909  and  OH_910
REMARK  523  A    between atoms: N_911  and  CA_912
REMARK  524  A    between atoms: CA_912  and  C_913
REMARK  525  A    between atoms: CA_912  and  CB_915
REMARK  526  A    between atoms: CB_915  and  CG1_916
REMARK  527  A    between atoms: CB_915  and  CG2_917
REMARK  528  A    between atoms: CG1_916  and  CD1_918
REMARK  529  A    between atoms: N_919  and  CA_920
REMARK  530  A    between atoms: CA_920  and  C_921
REMARK  531  A    between atoms: CA_920  and  CB_923
REMARK  532  A    between atoms: CB_923  and  OG1_924
REMARK  533  A    between atoms: CB_923  and  CG2_925
REMARK  534  A    between atoms: N_926  and  CA_927
REMARK  535  A    between atoms: CA_927  and  C_928
REMARK  536  A    between atoms: CA_927  and  CB_930
REMARK  537  A    between atoms: CB_930  and  CG_931
REMARK  538  A    between atoms: CG_931  and  CD_932
REMARK  539  A    between atoms: N_935  and  CA_936
REMARK  540  A    between atoms: CA_936  and  C_937
REMARK  541  A    between atoms: CA_936  and  CB_939
REMARK  542  A    between atoms: CB_939  and  CG_940
REMARK  543  A    between atoms: CG_940  and  CD2_941
REMARK  544  A    between atoms: CG_940  and  CD1_942
REMARK  545  A    between atoms: N_943  and  CA_944
REMARK  546  A    between atoms: CA_944  and  C_945
REMARK  547  A    between atoms: CA_944  and  CB_947
REMARK  548  A    between atoms: N_948  and  CA_949
REMARK  549  A    between atoms: CA_949  and  C_950
REMARK  550  A    between atoms: CA_949  and  CB_952
REMARK  551  A    between atoms: CB_952  and  CG_953
REMARK  552  A    between atoms: N_956  and  CA_957
REMARK  553  A    between atoms: CA_957  and  C_958
REMARK  554  A    between atoms: CA_957  and  CB_960
REMARK  555  A    between atoms: N_961  and  CA_962
REMARK  556  A    between atoms: CA_962  and  C_963
REMARK  557  A    between atoms: CA_962  and  CB_965
REMARK  558  A    between atoms: CB_965  and  CG_966
REMARK  559  A    between atoms: CG_966  and  CD2_967
REMARK  560  A    between atoms: CG_966  and  CD1_968
REMARK  561  A    between atoms: N_969  and  CA_970
REMARK  562  A    between atoms: CA_970  and  C_971
REMARK  563  A    between atoms: CA_970  and  CB_973
REMARK  564  A    between atoms: CB_973  and  OG_974
REMARK  565  A    between atoms: N_975  and  CA_976
REMARK  566  A    between atoms: CA_976  and  C_977
REMARK  567  A    between atoms: CA_976  and  CB_979
REMARK  568  A    between atoms: CB_979  and  CG_980
REMARK  569  A    between atoms: CZ_985  and  OH_986
REMARK  570  A    between atoms: N_987  and  CA_988
REMARK  571  A    between atoms: CA_988  and  C_989
REMARK  572  A    between atoms: CA_988  and  CB_991
REMARK  573  A    between atoms: CB_991  and  SG_992
REMARK  574  A    between atoms: N_993  and  CA_994
REMARK  575  A    between atoms: CA_994  and  C_995
REMARK  576  A    between atoms: CA_994  and  CB_997
REMARK  577  A    between atoms: CB_997  and  CG_998
REMARK  578  A    between atoms: N_1003  and  C_1004
REMARK  579  A    between atoms: C_1004  and  C_1005
REMARK  580  A    between atoms: C_1004  and  C_1007
REMARK  581  A    between atoms: C_1007  and  O_1008
REMARK  582  A    between atoms: N_1009  and  C_1010
REMARK  583  A    between atoms: C_1010  and  C_1011
REMARK  584  A    between atoms: C_1010  and  C_1013
REMARK  585  A    between atoms: C_1013  and  C_1014
REMARK  586  A    between atoms: C_1014  and  C_1015
REMARK  587  A    between atoms: C_1015  and  C_1016
REMARK  588  A    between atoms: C_1016  and  N_1017
REMARK  589  A    between atoms: N_1018  and  C_1019
REMARK  590  A    between atoms: C_1020  and  C_1021
REMARK  591  A    between atoms: C_1020  and  C_1024
REMARK  592  A    between atoms: C_1023  and  C_1026
REMARK  593  A    between atoms: C_1025  and  C_1026
REMARK  594  A    between atoms: C_1027  and  N_1029
REMARK  595  A    between atoms: C_1028  and  N_1030
REMARK  596  A    between atoms: N_1037  and  C_1038
REMARK  597  A    between atoms: C_1038  and  C_1039
REMARK  598  A    between atoms: C_1038  and  C_1041
REMARK  599  A    between atoms: C_1041  and  C_1042
REMARK  600  A    between atoms: C_1041  and  C_1043
REMARK  601  A    between atoms: N_1044  and  C_1045
REMARK  602  A    between atoms: C_1045  and  C_1046
REMARK  603  A    between atoms: C_1045  and  C_1048
REMARK  604  A    between atoms: C_1048  and  C_1049
REMARK  605  A    between atoms: C_1048  and  C_1050
REMARK  606  A    between atoms: C_1049  and  C_1051
REMARK  607  A    between atoms: N_1052  and  C_1053
REMARK  608  A    between atoms: C_1053  and  C_1054
REMARK  609  A    between atoms: C_1053  and  C_1056
REMARK  610  A    between atoms: C_1056  and  C_1057
REMARK  611  A    between atoms: N_1062  and  C_1063
REMARK  612  A    between atoms: C_1063  and  C_1064
REMARK  613  A    between atoms: C_1063  and  C_1066
REMARK  614  A    between atoms: C_1066  and  C_1067
REMARK  615  A    between atoms: C_1067  and  C_1068
REMARK  616  A    between atoms: C_1068  and  N_1069
REMARK  617  A    between atoms: N_1073  and  C_1074
REMARK  618  A    between atoms: C_1074  and  C_1077
REMARK  619  A    between atoms: C_1077  and  C_1078
REMARK  620  A    between atoms: N_1081  and  C_1084
REMARK  621  A    between atoms: C_1083  and  C_1085
REMARK  622  A    between atoms: C_1085  and  C_1086
REMARK  623  A    between atoms: C_1085  and  O_1087
REMARK  624  A    between atoms: C_1085  and  N_1097
REMARK  625  A    between atoms: C_1089  and  C_1094
REMARK  626  A    between atoms: C_1090  and  C_1091
REMARK  627  A    between atoms: C_1093  and  C_1094
REMARK  628  A    between atoms: C_1098  and  C_1099
REMARK  629  A    between atoms: C_1098  and  C_1101
REMARK  630  A    between atoms: C_1101  and  C_1102
REMARK  631  A    between atoms: C_1102  and  C_1103
REMARK  632  A    between atoms: C_1103  and  C_1104
REMARK  633  A    between atoms: C_1104  and  N_1105
REMARK  634  A    between atoms: C_1107  and  C_1108
REMARK  635  A    between atoms: N_1113  and  CA_1114
REMARK  636  A    between atoms: CA_1114  and  C_1115
REMARK  637  A    between atoms: CA_1114  and  CB_1117
REMARK  638  A    between atoms: CB_1117  and  CG_1118
REMARK  639  A    between atoms: CG_1118  and  CD_1119
REMARK  640  A    between atoms: N_1122  and  CA_1123
REMARK  641  A    between atoms: CA_1123  and  C_1124
REMARK  642  A    between atoms: CA_1123  and  CB_1126
REMARK  643  A    between atoms: CB_1126  and  CG_1127
REMARK  644  A    between atoms: N_1130  and  CA_1131
REMARK  645  A    between atoms: CA_1131  and  C_1132
REMARK  646  A    between atoms: CA_1131  and  CB_1134
REMARK  647  A    between atoms: CB_1134  and  CG_1135
REMARK  648  A    between atoms: CG_1135  and  CD2_1136
REMARK  649  A    between atoms: CG_1135  and  CD1_1137
REMARK  650  A    between atoms: N_1138  and  CA_1139
REMARK  651  A    between atoms: CA_1139  and  C_1140
REMARK  652  A    between atoms: CA_1139  and  CB_1142
REMARK  653  A    between atoms: CB_1142  and  CG_1143
REMARK  654  A    between atoms: CG_1143  and  CD1_1144
REMARK  655  A    between atoms: CG_1143  and  CD2_1145
REMARK  656  A    between atoms: N_1146  and  CA_1147
REMARK  657  A    between atoms: CA_1147  and  C_1148
REMARK  658  A    between atoms: CA_1147  and  CB_1150
REMARK  659  A    between atoms: CB_1150  and  CG_1151
REMARK  660  A    between atoms: CG_1151  and  CD2_1152
REMARK  661  A    between atoms: CG_1151  and  CD1_1153
REMARK  662  A    between atoms: N_1154  and  CA_1155
REMARK  663  A    between atoms: CA_1155  and  C_1156
REMARK  664  A    between atoms: N_1158  and  CA_1159
REMARK  665  A    between atoms: CA_1159  and  C_1160
REMARK  666  A    between atoms: CA_1159  and  CB_1162
REMARK  667  A    between atoms: CB_1162  and  OG_1163
REMARK  668  A    between atoms: N_1164  and  CA_1165
REMARK  669  A    between atoms: CA_1165  and  C_1166
REMARK  670  A    between atoms: CA_1165  and  CB_1168
REMARK  671  A    between atoms: N_1169  and  CA_1170
REMARK  672  A    between atoms: CA_1170  and  C_1171
REMARK  673  A    between atoms: N_1173  and  CA_1174
REMARK  674  A    between atoms: CA_1174  and  C_1175
REMARK  675  A    between atoms: CA_1174  and  CB_1177
REMARK  676  A    between atoms: CB_1177  and  CG_1178
REMARK  677  A    between atoms: CG_1178  and  CD_1179
REMARK  678  A    between atoms: N_1182  and  CA_1183
REMARK  679  A    between atoms: CA_1183  and  C_1184
REMARK  680  A    between atoms: CA_1183  and  CB_1186
REMARK  681  A    between atoms: CB_1186  and  CG_1187
REMARK  682  A    between atoms: CG_1187  and  CD2_1188
REMARK  683  A    between atoms: CG_1187  and  CD1_1189
REMARK  684  A    between atoms: N_1190  and  CA_1191
REMARK  685  A    between atoms: CA_1191  and  C_1192
REMARK  686  A    between atoms: CA_1191  and  CB_1194
REMARK  687  A    between atoms: CB_1194  and  CG_1195
REMARK  688  A    between atoms: CG_1195  and  CD_1196
REMARK  689  A    between atoms: CD_1196  and  CE_1197
REMARK  690  A    between atoms: CE_1197  and  NZ_1198
REMARK  691  A    between atoms: N_1199  and  CA_1200
REMARK  692  A    between atoms: CA_1200  and  C_1201
REMARK  693  A    between atoms: CA_1200  and  CB_1203
REMARK  694  A    between atoms: CB_1203  and  CG1_1204
REMARK  695  A    between atoms: CB_1203  and  CG2_1205
REMARK  696  A    between atoms: CG1_1204  and  CD1_1206
REMARK  697  A    between atoms: N_1207  and  CA_1208
REMARK  698  A    between atoms: CA_1208  and  C_1209
REMARK  699  A    between atoms: CA_1208  and  CB_1211
REMARK  700  A    between atoms: N_1212  and  CA_1213
REMARK  701  A    between atoms: CA_1213  and  C_1214
REMARK  702  A    between atoms: CA_1213  and  CB_1216
REMARK  703  A    between atoms: CB_1216  and  CG_1217
REMARK  704  A    between atoms: N_1220  and  CA_1221
REMARK  705  A    between atoms: CA_1221  and  C_1222
REMARK  706  A    between atoms: CA_1221  and  CB_1224
REMARK  707  A    between atoms: CB_1224  and  CG_1225
REMARK  708  A    between atoms: N_1231  and  CA_1232
REMARK  709  A    between atoms: CA_1232  and  C_1233
REMARK  710  A    between atoms: N_1235  and  CA_1236
REMARK  711  A    between atoms: CA_1236  and  C_1237
REMARK  712  A    between atoms: CA_1236  and  CB_1239
REMARK  713  A    between atoms: CB_1239  and  CG_1240
REMARK  714  A    between atoms: N_1249  and  CA_1250
REMARK  715  A    between atoms: CA_1250  and  C_1251
REMARK  716  A    between atoms: CA_1250  and  CB_1253
REMARK  717  A    between atoms: CB_1253  and  OG_1254
REMARK  718  A    between atoms: N_1255  and  CA_1256
REMARK  719  A    between atoms: CA_1256  and  C_1257
REMARK  720  A    between atoms: CA_1256  and  CB_1259
REMARK  721  A    between atoms: CB_1259  and  CG2_1260
REMARK  722  A    between atoms: CB_1259  and  CG1_1261
REMARK  723  A    between atoms: N_1262  and  CA_1263
REMARK  724  A    between atoms: CA_1263  and  C_1264
REMARK  725  A    between atoms: CA_1263  and  CB_1266
REMARK  726  A    between atoms: CB_1266  and  CG_1267
REMARK  727  A    between atoms: N_1272  and  CA_1273
REMARK  728  A    between atoms: CA_1273  and  C_1274
REMARK  729  A    between atoms: CA_1273  and  CB_1276
REMARK  730  A    between atoms: CA_1278  and  C_1279
REMARK  731  A    between atoms: N_1284  and  CA_1285
REMARK  732  A    between atoms: CA_1285  and  C_1286
REMARK  733  A    between atoms: CA_1285  and  CB_1288
REMARK  734  A    between atoms: CB_1288  and  OG_1289
REMARK  735  A    between atoms: N_1290  and  CA_1291
REMARK  736  A    between atoms: CA_1291  and  C_1292
REMARK  737  A    between atoms: CA_1291  and  CB_1294
REMARK  738  A    between atoms: CB_1294  and  OG_1295
REMARK  739  A    between atoms: N_1296  and  C_1297
REMARK  740  A    between atoms: C_1297  and  C_1298
REMARK  741  A    between atoms: C_1297  and  C_1300
REMARK  742  A    between atoms: C_1300  and  C_1301
REMARK  743  A    between atoms: C_1301  and  C_1302
REMARK  744  A    between atoms: N_1303  and  CA_1304
REMARK  745  A    between atoms: CA_1304  and  C_1305
REMARK  746  A    between atoms: CA_1304  and  CB_1307
REMARK  747  A    between atoms: CB_1307  and  CG_1308
REMARK  748  A    between atoms: CG_1308  and  CD_1309
REMARK  749  A    between atoms: CD_1309  and  NE_1310
REMARK  750  A    between atoms: N_1314  and  CA_1315
REMARK  751  A    between atoms: CA_1315  and  C_1316
REMARK  752  A    between atoms: CA_1315  and  CB_1318
REMARK  753  A    between atoms: CB_1318  and  OG1_1319
REMARK  754  A    between atoms: CB_1318  and  CG2_1320
REMARK  755  A    between atoms: N_1321  and  C_1322
REMARK  756  A    between atoms: C_1322  and  C_1323
REMARK  757  A    between atoms: C_1322  and  C_1325
REMARK  758  A    between atoms: C_1325  and  C_1326
REMARK  759  A    between atoms: C_1326  and  C_1327
REMARK  760  A    between atoms: C_1326  and  C_1328
REMARK  761  A    between atoms: N_1329  and  C_1330
REMARK  762  A    between atoms: C_1330  and  C_1331
REMARK  763  A    between atoms: C_1330  and  C_1333
REMARK  764  A    between atoms: N_1334  and  C_1335
REMARK  765  A    between atoms: C_1335  and  C_1336
REMARK  766  A    between atoms: N_1338  and  C_1339
REMARK  767  A    between atoms: C_1339  and  C_1340
REMARK  768  A    between atoms: C_1339  and  C_1342
REMARK  769  A    between atoms: C_1342  and  O_1343
REMARK  770  A    between atoms: C_1342  and  C_1344
REMARK  771  A    between atoms: N_1345  and  C_1346
REMARK  772  A    between atoms: C_1346  and  C_1347
REMARK  773  A    between atoms: C_1346  and  C_1349
REMARK  774  A    between atoms: C_1349  and  C_1350
REMARK  775  A    between atoms: C_1350  and  C_1351
REMARK  776  A    between atoms: C_1350  and  C_1352
REMARK  777  A    between atoms: N_1353  and  C_1354
REMARK  778  A    between atoms: C_1354  and  C_1355
REMARK  779  A    between atoms: C_1354  and  C_1357
REMARK  780  A    between atoms: C_1357  and  C_1358
REMARK  781  A    between atoms: N_1361  and  C_1362
REMARK  782  A    between atoms: C_1362  and  C_1363
REMARK  783  A    between atoms: C_1362  and  C_1365
REMARK  784  A    between atoms: C_1365  and  C_1366
REMARK  785  A    between atoms: C_1371  and  O_1372
REMARK  786  A    between atoms: N_1373  and  C_1374
REMARK  787  A    between atoms: C_1374  and  C_1375
REMARK  788  A    between atoms: C_1374  and  C_1377
REMARK  789  A    between atoms: C_1377  and  C_1378
REMARK  790  A    between atoms: C_1378  and  C_1379
REMARK  791  A    between atoms: C_1378  and  C_1380
REMARK  792  A    between atoms: C_1382  and  C_1383
REMARK  793  A    between atoms: C_1389  and  C_1390
REMARK  794  A    between atoms: N_1395  and  C_1396
REMARK  795  A    between atoms: C_1396  and  C_1399
REMARK  796  A    between atoms: C_1399  and  C_1400
REMARK  797  A    between atoms: C_1400  and  C_1401
REMARK  798  A    between atoms: N_1405  and  C_1406
REMARK  799  A    between atoms: C_1407  and  C_1412
REMARK  800  A    between atoms: C_1408  and  O_1410
REMARK  801  A    between atoms: C_1409  and  O_1411
REMARK  802  A    between atoms: O_1410  and  O_1411
REMARK  803  A    between atoms: C_1412  and  C_1414
REMARK  804  A    between atoms: C_1413  and  C_1415
REMARK  805  A    between atoms: S_1416  and  C_1418
REMARK  806  A    between atoms: S_1417  and  C_1419
REMARK  807  A    between atoms: C_1418  and  C_1419
REMARK  808  A    between atoms: N_1420  and  CA_1421
REMARK  809  A    between atoms: CA_1421  and  C_1422
REMARK  810  A    between atoms: CA_1421  and  CB_1424
REMARK  811  A    between atoms: CB_1424  and  CG1_1425
REMARK  812  A    between atoms: CB_1424  and  CG2_1426
REMARK  813  A    between atoms: CG1_1425  and  CD1_1427
REMARK  814  A    between atoms: N_1428  and  CA_1429
REMARK  815  A    between atoms: CA_1429  and  C_1430
REMARK  816  A    between atoms: CA_1429  and  CB_1432
REMARK  817  A    between atoms: CB_1432  and  CG_1433
REMARK  818  A    between atoms: CG_1433  and  CD_1434
REMARK  819  A    between atoms: N_1437  and  CA_1438
REMARK  820  A    between atoms: CA_1438  and  C_1439
REMARK  821  A    between atoms: N_1441  and  CA_1442
REMARK  822  A    between atoms: CA_1442  and  C_1443
REMARK  823  A    between atoms: CA_1442  and  CB_1445
REMARK  824  A    between atoms: CB_1445  and  CG_1446
REMARK  825  A    between atoms: CG_1446  and  CD_1447
REMARK  826  A    between atoms: CD_1447  and  NE_1448
REMARK  827  A    between atoms: N_1452  and  C_1453
REMARK  828  A    between atoms: C_1453  and  C_1454
REMARK  829  A    between atoms: C_1453  and  C_1456
REMARK  830  A    between atoms: C_1456  and  C_1457
REMARK  831  A    between atoms: C_1457  and  S_1458
REMARK  832  A    between atoms: N_1459  and  CA_1460
REMARK  833  A    between atoms: CA_1460  and  C_1461
REMARK  834  A    between atoms: CA_1460  and  CB_1463
REMARK  835  A    between atoms: CB_1463  and  CG_1464
REMARK  836  A    between atoms: N_1469  and  CA_1470
REMARK  837  A    between atoms: CA_1470  and  C_1471
REMARK  838  A    between atoms: CA_1470  and  CB_1473
REMARK  839  A    between atoms: CB_1473  and  CG_1474
REMARK  840  A    between atoms: N_1477  and  CA_1478
REMARK  841  A    between atoms: CA_1478  and  C_1479
REMARK  842  A    between atoms: CA_1478  and  CB_1481
REMARK  843  A    between atoms: CB_1481  and  CG_1482
REMARK  844  A    between atoms: CG_1482  and  CD_1483
REMARK  845  A    between atoms: N_1486  and  CA_1487
REMARK  846  A    between atoms: CA_1487  and  C_1488
REMARK  847  A    between atoms: CA_1487  and  CB_1490
REMARK  848  A    between atoms: CB_1490  and  CG_1491
REMARK  849  A    between atoms: CG_1491  and  CD_1492
REMARK  850  A    between atoms: CD_1492  and  CE_1493
REMARK  851  A    between atoms: CE_1493  and  NZ_1494
REMARK  852  A    between atoms: N_1495  and  CA_1496
REMARK  853  A    between atoms: CA_1496  and  C_1497
REMARK  854  A    between atoms: CA_1496  and  CB_1499
REMARK  855  A    between atoms: CB_1499  and  CG2_1500
REMARK  856  A    between atoms: CB_1499  and  CG1_1501
REMARK  857  A    between atoms: N_1502  and  CA_1503
REMARK  858  A    between atoms: CA_1503  and  C_1504
REMARK  859  A    between atoms: CA_1503  and  CB_1506
REMARK  860  A    between atoms: CB_1506  and  CG_1507
REMARK  861  A    between atoms: N_1510  and  CA_1511
REMARK  862  A    between atoms: CA_1511  and  C_1512
REMARK  863  A    between atoms: CA_1511  and  CB_1514
REMARK  864  A    between atoms: CB_1514  and  CG_1515
REMARK  865  A    between atoms: CG_1515  and  CD2_1516
REMARK  866  A    between atoms: CG_1515  and  CD1_1517
REMARK  867  A    between atoms: N_1518  and  CA_1519
REMARK  868  A    between atoms: CA_1519  and  C_1520
REMARK  869  A    between atoms: CA_1519  and  CB_1522
REMARK  870  A    between atoms: CB_1522  and  CG_1523
REMARK  871  A    between atoms: N_1532  and  CA_1533
REMARK  872  A    between atoms: CA_1533  and  C_1534
REMARK  873  A    between atoms: CA_1533  and  CB_1536
REMARK  874  A    between atoms: CB_1536  and  OG_1537
REMARK  875  A    between atoms: N_1538  and  CA_1539
REMARK  876  A    between atoms: CA_1539  and  C_1540
REMARK  877  A    between atoms: CA_1539  and  CB_1542
REMARK  878  A    between atoms: CB_1542  and  CG_1543
REMARK  879  A    between atoms: CG_1543  and  CD2_1544
REMARK  880  A    between atoms: CG_1543  and  CD1_1545
REMARK  881  A    between atoms: N_1546  and  CA_1547
REMARK  882  A    between atoms: CA_1547  and  C_1548
REMARK  883  A    between atoms: N_1550  and  CA_1551
REMARK  884  A    between atoms: CA_1551  and  C_1552
REMARK  885  A    between atoms: CA_1551  and  CB_1554
REMARK  886  A    between atoms: CB_1554  and  CG2_1555
REMARK  887  A    between atoms: CB_1554  and  CG1_1556
REMARK  888  A    between atoms: N_1557  and  CA_1558
REMARK  889  A    between atoms: CA_1558  and  C_1559
REMARK  890  A    between atoms: CA_1558  and  CB_1561
REMARK  891  A    between atoms: CB_1561  and  CG_1562
REMARK  892  A    between atoms: CG_1562  and  CD1_1563
REMARK  893  A    between atoms: CG_1562  and  CD2_1564
REMARK  894  A    between atoms: N_1565  and  CA_1566
REMARK  895  A    between atoms: CA_1566  and  C_1567
REMARK  896  A    between atoms: CA_1566  and  CB_1569
REMARK  897  A    between atoms: CB_1569  and  SG_1570
REMARK  898  A    between atoms: N_1571  and  CA_1572
REMARK  899  A    between atoms: CA_1572  and  C_1573
REMARK  900  A    between atoms: CA_1572  and  CB_1575
REMARK  901  A    between atoms: CB_1575  and  CG_1576
REMARK  902  A    between atoms: CZ_1581  and  OH_1582
REMARK  903  A    between atoms: N_1583  and  CA_1584
REMARK  904  A    between atoms: CA_1584  and  C_1585
REMARK  905  A    between atoms: CA_1584  and  CB_1587
REMARK  906  A    between atoms: CB_1587  and  CG_1588
REMARK  907  A    between atoms: CG_1588  and  CD_1589
REMARK  908  A    between atoms: N_1592  and  CA_1593
REMARK  909  A    between atoms: CA_1593  and  C_1594
REMARK  910  A    between atoms: CA_1593  and  CB_1596
REMARK  911  A    between atoms: CB_1596  and  CG_1597
REMARK  912  A    between atoms: N_1603  and  CA_1604
REMARK  913  A    between atoms: CA_1604  and  C_1605
REMARK  914  A    between atoms: CA_1604  and  CB_1607
REMARK  915  A    between atoms: CB_1607  and  CG_1608
REMARK  916  A    between atoms: CG_1608  and  CD1_1609
REMARK  917  A    between atoms: CG_1608  and  CD2_1610
REMARK  918  A    between atoms: N_1611  and  CA_1612
REMARK  919  A    between atoms: CA_1612  and  C_1613
REMARK  920  A    between atoms: CA_1612  and  CB_1615
REMARK  921  A    between atoms: CB_1615  and  CG2_1616
REMARK  922  A    between atoms: CB_1615  and  CG1_1617
REMARK  923  A    between atoms: N_1618  and  CA_1619
REMARK  924  A    between atoms: CA_1619  and  C_1620
REMARK  925  A    between atoms: N_1622  and  C_1623
REMARK  926  A    between atoms: C_1623  and  C_1624
REMARK  927  A    between atoms: C_1623  and  C_1626
REMARK  928  A    between atoms: C_1626  and  C_1627
REMARK  929  A    between atoms: C_1627  and  C_1628
REMARK  930  A    between atoms: CA_1630  and  C_1631
REMARK  931  A    between atoms: CA_1637  and  C_1638
REMARK  932  A    between atoms: N_1643  and  CA_1644
REMARK  933  A    between atoms: CA_1644  and  C_1645
REMARK  934  A    between atoms: CA_1644  and  CB_1647
REMARK  935  A    between atoms: CB_1647  and  CG_1648
REMARK  936  A    between atoms: N_1654  and  CA_1655
REMARK  937  A    between atoms: CA_1655  and  C_1656
REMARK  938  A    between atoms: CA_1655  and  CB_1658
REMARK  939  A    between atoms: CB_1658  and  CG_1659
REMARK  940  A    between atoms: CG_1659  and  CD_1660
REMARK  941  A    between atoms: N_1663  and  CA_1664
REMARK  942  A    between atoms: CA_1664  and  C_1665
REMARK  943  A    between atoms: CA_1664  and  CB_1667
REMARK  944  A    between atoms: N_1668  and  CA_1669
REMARK  945  A    between atoms: CA_1669  and  C_1670
REMARK  946  A    between atoms: CA_1669  and  CB_1672
REMARK  947  A    between atoms: CB_1672  and  CG_1673
REMARK  948  A    between atoms: N_1676  and  CA_1677
REMARK  949  A    between atoms: CA_1677  and  C_1678
REMARK  950  A    between atoms: CA_1677  and  CB_1680
REMARK  951  A    between atoms: CB_1680  and  OG1_1681
REMARK  952  A    between atoms: CB_1680  and  CG2_1682
REMARK  953  A    between atoms: N_1683  and  CA_1684
REMARK  954  A    between atoms: CA_1684  and  C_1685
REMARK  955  A    between atoms: CA_1684  and  CB_1687
REMARK  956  A    between atoms: CB_1687  and  CG_1688
REMARK  957  A    between atoms: CZ_1693  and  OH_1694
REMARK  958  A    between atoms: N_1695  and  CA_1696
REMARK  959  A    between atoms: CA_1696  and  C_1697
REMARK  960  A    between atoms: CA_1696  and  CB_1699
REMARK  961  A    between atoms: CB_1699  and  CG_1700
REMARK  962  A    between atoms: CG_1700  and  CD_1701
REMARK  963  A    between atoms: N_1704  and  CA_1705
REMARK  964  A    between atoms: CA_1705  and  C_1706
REMARK  965  A    between atoms: CA_1705  and  CB_1708
REMARK  966  A    between atoms: CB_1708  and  CG_1709
REMARK  967  A    between atoms: CG_1709  and  CD_1710
REMARK  968  A    between atoms: N_1713  and  CA_1714
REMARK  969  A    between atoms: CA_1714  and  C_1715
REMARK  970  A    between atoms: CA_1714  and  CB_1717
REMARK  971  A    between atoms: CB_1717  and  OG1_1718
REMARK  972  A    between atoms: CB_1717  and  CG2_1719
REMARK  973  A    between atoms: N_1720  and  CA_1721
REMARK  974  A    between atoms: CA_1721  and  C_1722
REMARK  975  A    between atoms: CA_1721  and  CB_1724
REMARK  976  A    between atoms: CB_1724  and  CG_1725
REMARK  977  A    between atoms: CZ_1730  and  OH_1731
REMARK  978  A    between atoms: N_1732  and  CA_1733
REMARK  979  A    between atoms: CA_1733  and  C_1734
REMARK  980  A    between atoms: CA_1733  and  CB_1736
REMARK  981  A    between atoms: CB_1736  and  SG_1737
REMARK  982  A    between atoms: N_1738  and  C_1739
REMARK  983  A    between atoms: C_1739  and  C_1740
REMARK  984  A    between atoms: C_1739  and  C_1742
REMARK  985  A    between atoms: C_1742  and  C_1743
REMARK  986  A    between atoms: C_1743  and  C_1744
REMARK  987  A    between atoms: C_1744  and  N_1745
REMARK  988  A    between atoms: N_1746  and  CA_1747
REMARK  989  A    between atoms: CA_1747  and  C_1748
REMARK  990  A    between atoms: CA_1747  and  CB_1750
REMARK  991  A    between atoms: CB_1750  and  CG1_1751
REMARK  992  A    between atoms: CB_1750  and  CG2_1752
REMARK  993  A    between atoms: CG1_1751  and  CD1_1753
REMARK  994  A    between atoms: N_1754  and  C_1755
REMARK  995  A    between atoms: C_1755  and  C_1756
REMARK  996  A    between atoms: C_1755  and  C_1758
REMARK  997  A    between atoms: C_1758  and  O_1759
REMARK  998  A    between atoms: N_1760  and  C_1761
REMARK  999  A    between atoms: C_1761  and  C_1762
REMARK  1000  A    between atoms: C_1761  and  C_1764
REMARK  1001  A    between atoms: C_1764  and  C_1765
REMARK  1002  A    between atoms: C_1765  and  C_1766
REMARK  1003  A    between atoms: C_1766  and  N_1767
REMARK  1004  A    between atoms: N_1771  and  C_1772
REMARK  1005  A    between atoms: C_1772  and  C_1773
REMARK  1006  A    between atoms: C_1772  and  C_1775
REMARK  1007  A    between atoms: C_1775  and  C_1776
REMARK  1008  A    between atoms: C_1775  and  C_1777
REMARK  1009  A    between atoms: N_1778  and  C_1779
REMARK  1010  A    between atoms: C_1779  and  C_1780
REMARK  1011  A    between atoms: C_1779  and  C_1782
REMARK  1012  A    between atoms: C_1782  and  C_1783
REMARK  1013  A    between atoms: C_1783  and  C_1784
REMARK  1014  A    between atoms: N_1787  and  C_1788
REMARK  1015  A    between atoms: C_1788  and  C_1789
REMARK  1016  A    between atoms: C_1788  and  C_1791
REMARK  1017  A    between atoms: C_1791  and  C_1792
REMARK  1018  A    between atoms: N_1798  and  C_1799
REMARK  1019  A    between atoms: C_1799  and  C_1800
REMARK  1020  A    between atoms: C_1799  and  C_1802
REMARK  1021  A    between atoms: C_1802  and  O_1803
REMARK  1022  A    between atoms: C_1802  and  C_1804
REMARK  1023  A    between atoms: N_1805  and  C_1806
REMARK  1024  A    between atoms: C_1806  and  C_1807
REMARK  1025  A    between atoms: C_1806  and  C_1809
REMARK  1026  A    between atoms: C_1809  and  C_1810
REMARK  1027  A    between atoms: C_1817  and  C_1818
REMARK  1028  A    between atoms: N_1823  and  C_1824
REMARK  1029  A    between atoms: C_1824  and  C_1825
REMARK  1030  A    between atoms: C_1824  and  C_1827
REMARK  1031  A    between atoms: C_1827  and  C_1828
REMARK  1032  A    between atoms: N_1831  and  C_1832
REMARK  1033  A    between atoms: C_1832  and  C_1833
REMARK  1034  A    between atoms: C_1832  and  C_1835
REMARK  1035  A    between atoms: C_1835  and  C_1836
REMARK  1036  A    between atoms: N_1842  and  C_1843
REMARK  1037  A    between atoms: C_1843  and  C_1844
REMARK  1038  A    between atoms: C_1843  and  C_1846
REMARK  1039  A    between atoms: C_1846  and  C_1847
REMARK  1040  A    between atoms: C_1846  and  C_1848
REMARK  1041  A    between atoms: N_1849  and  C_1850
REMARK  1042  A    between atoms: C_1850  and  C_1851
REMARK  1043  A    between atoms: C_1850  and  C_1853
REMARK  1044  A    between atoms: C_1853  and  O_1854
REMARK  1045  A    between atoms: C_1853  and  C_1855
REMARK  1046  A    between atoms: N_1856  and  C_1857
REMARK  1047  A    between atoms: C_1858  and  C_1859
REMARK  1048  A    between atoms: C_1858  and  C_1861
REMARK  1049  A    between atoms: C_1862  and  C_1863
REMARK  1050  A    between atoms: C_1862  and  C_1864
REMARK  1051  A    between atoms: C_1863  and  C_1865
REMARK  1052  A    between atoms: N_1871  and  C_1872
REMARK  1053  A    between atoms: C_1872  and  C_1873
REMARK  1054  A    between atoms: N_1875  and  CA_1876
REMARK  1055  A    between atoms: CA_1876  and  C_1877
REMARK  1056  A    between atoms: CA_1876  and  CB_1879
REMARK  1057  A    between atoms: N_1880  and  CA_1881
REMARK  1058  A    between atoms: CA_1881  and  C_1882
REMARK  1059  A    between atoms: CA_1881  and  CB_1884
REMARK  1060  A    between atoms: CB_1884  and  CG_1885
REMARK  1061  A    between atoms: CG_1885  and  CD_1886
REMARK  1062  A    between atoms: CD_1886  and  NE_1887
REMARK  1063  A    between atoms: N_1891  and  CA_1892
REMARK  1064  A    between atoms: CA_1892  and  C_1893
REMARK  1065  A    between atoms: CA_1892  and  CB_1895
REMARK  1066  A    between atoms: CB_1895  and  CG_1896
REMARK  1067  A    between atoms: N_1899  and  CA_1900
REMARK  1068  A    between atoms: CA_1900  and  C_1901
REMARK  1069  A    between atoms: CA_1900  and  CB_1903
REMARK  1070  A    between atoms: CB_1903  and  CG_1904
REMARK  1071  A    between atoms: CG_1904  and  CD1_1905
REMARK  1072  A    between atoms: CG_1904  and  CD2_1906
REMARK  1073  A    between atoms: N_1907  and  CA_1908
REMARK  1074  A    between atoms: CA_1908  and  C_1909
REMARK  1075  A    between atoms: CA_1908  and  CB_1911
REMARK  1076  A    between atoms: CB_1911  and  CG1_1912
REMARK  1077  A    between atoms: CB_1911  and  CG2_1913
REMARK  1078  A    between atoms: CG1_1912  and  CD1_1914
REMARK  1079  A    between atoms: N_1915  and  CA_1916
REMARK  1080  A    between atoms: CA_1916  and  C_1917
REMARK  1081  A    between atoms: CA_1916  and  CB_1919
REMARK  1082  A    between atoms: CB_1919  and  OG_1920
REMARK  1083  A    between atoms: N_1921  and  CA_1922
REMARK  1084  A    between atoms: CA_1922  and  C_1923
REMARK  1085  A    between atoms: CA_1922  and  CB_1925
REMARK  1086  A    between atoms: CB_1925  and  CG_1926
REMARK  1087  A    between atoms: CG_1926  and  CD_1927
REMARK  1088  A    between atoms: CD_1927  and  NE_1928
REMARK  1089  A    between atoms: N_1932  and  CA_1933
REMARK  1090  A    between atoms: CA_1933  and  C_1934
REMARK  1091  A    between atoms: CA_1933  and  CB_1936
REMARK  1092  A    between atoms: CB_1936  and  CG_1937
REMARK  1093  A    between atoms: CG_1937  and  CD2_1938
REMARK  1094  A    between atoms: CG_1937  and  CD1_1939
REMARK  1095  A    between atoms: N_1940  and  CA_1941
REMARK  1096  A    between atoms: CA_1941  and  C_1942
REMARK  1097  A    between atoms: CA_1941  and  CB_1944
REMARK  1098  A    between atoms: CB_1944  and  CG_1945
REMARK  1099  A    between atoms: CG_1945  and  CD2_1946
REMARK  1100  A    between atoms: CG_1945  and  CD1_1947
REMARK  1101  A    between atoms: N_1948  and  CA_1949
REMARK  1102  A    between atoms: CA_1949  and  C_1950
REMARK  1103  A    between atoms: CA_1949  and  CB_1952
REMARK  1104  A    between atoms: CB_1952  and  CG_1953
REMARK  1105  A    between atoms: CG_1953  and  CD_1954
REMARK  1106  A    between atoms: CD_1954  and  CE_1955
REMARK  1107  A    between atoms: CE_1955  and  NZ_1956
REMARK  1108  A    between atoms: N_1957  and  CA_1958
REMARK  1109  A    between atoms: CA_1958  and  C_1959
REMARK  1110  A    between atoms: CA_1958  and  CB_1961
REMARK  1111  A    between atoms: CB_1961  and  CG_1962
REMARK  1112  A    between atoms: N_1967  and  CA_1968
REMARK  1113  A    between atoms: CA_1968  and  C_1969
REMARK  1114  A    between atoms: CA_1968  and  CB_1971
REMARK  1115  A    between atoms: CB_1971  and  CG_1972
REMARK  1116  A    between atoms: CA_1976  and  C_1977
REMARK  1117  A    between atoms: N_1982  and  C_1983
REMARK  1118  A    between atoms: C_1983  and  C_1984
REMARK  1119  A    between atoms: C_1983  and  C_1986
REMARK  1120  A    between atoms: C_1986  and  O_1987
REMARK  1121  A    between atoms: N_1988  and  C_1989
REMARK  1122  A    between atoms: C_1989  and  C_1990
REMARK  1123  A    between atoms: C_1989  and  C_1992
REMARK  1124  A    between atoms: C_1992  and  C_1993
REMARK  1125  A    between atoms: C_1993  and  C_1994
REMARK  1126  A    between atoms: N_1997  and  C_1998
REMARK  1127  A    between atoms: C_1998  and  C_1999
REMARK  1128  A    between atoms: C_1998  and  C_2001
REMARK  1129  A    between atoms: C_2001  and  C_2002
REMARK  1130  A    between atoms: C_2002  and  C_2003
REMARK  1131  A    between atoms: C_2003  and  N_2004
REMARK  1132  A    between atoms: C_2009  and  C_2010
REMARK  1133  A    between atoms: N_2015  and  C_2017
REMARK  1134  A    between atoms: C_2016  and  C_2018
REMARK  1135  A    between atoms: C_2016  and  C_2021
REMARK  1136  A    between atoms: C_2021  and  C_2022
REMARK  1137  A    between atoms: C_2022  and  C_2023
REMARK  1138  A    between atoms: C_2023  and  S_2024
REMARK  1139  A    between atoms: C_2023  and  S_2025
REMARK  1140  A    between atoms: S_2024  and  C_2026
REMARK  1141  A    between atoms: S_2025  and  C_2027
REMARK  1142  A    between atoms: N_2028  and  CA_2029
REMARK  1143  A    between atoms: CA_2029  and  C_2030
REMARK  1144  A    between atoms: CA_2029  and  CB_2032
REMARK  1145  A    between atoms: CB_2032  and  CG_2033
REMARK  1146  A    between atoms: CG_2033  and  CD1_2034
REMARK  1147  A    between atoms: CG_2033  and  CD2_2035
REMARK  1148  A    between atoms: N_2036  and  CA_2037
REMARK  1149  A    between atoms: CA_2037  and  C_2038
REMARK  1150  A    between atoms: CA_2037  and  CB_2040
REMARK  1151  A    between atoms: N_2041  and  CA_2042
REMARK  1152  A    between atoms: CA_2042  and  C_2043
REMARK  1153  A    between atoms: CA_2042  and  CB_2045
REMARK  1154  A    between atoms: CB_2045  and  CG_2046
REMARK  1155  A    between atoms: CG_2046  and  CD_2047
REMARK  1156  A    between atoms: N_2050  and  CA_2051
REMARK  1157  A    between atoms: CA_2051  and  C_2052
REMARK  1158  A    between atoms: CA_2051  and  CB_2054
REMARK  1159  A    between atoms: CB_2054  and  CG2_2055
REMARK  1160  A    between atoms: CB_2054  and  CG1_2056
REMARK  1161  A    between atoms: N_2057  and  CA_2058
REMARK  1162  A    between atoms: CA_2058  and  C_2059
REMARK  1163  A    between atoms: CA_2058  and  CB_2061
REMARK  1164  A    between atoms: CB_2061  and  CG_2062
REMARK  1165  A    between atoms: CG_2062  and  CD1_2063
REMARK  1166  A    between atoms: CG_2062  and  CD2_2064
REMARK  1167  A    between atoms: N_2065  and  CA_2066
REMARK  1168  A    between atoms: CA_2066  and  C_2067
REMARK  1169  A    between atoms: CA_2066  and  CB_2069
REMARK  1170  A    between atoms: CB_2069  and  CG_2070
REMARK  1171  A    between atoms: CG_2070  and  CD_2071
REMARK  1172  A    between atoms: N_2074  and  CA_2075
REMARK  1173  A    between atoms: CA_2075  and  C_2076
REMARK  1174  A    between atoms: CA_2075  and  CB_2078
REMARK  1175  A    between atoms: CB_2078  and  CG_2079
REMARK  1176  A    between atoms: CA_2085  and  C_2086
REMARK  1177  A    between atoms: N_2091  and  CA_2092
REMARK  1178  A    between atoms: CA_2092  and  C_2093
REMARK  1179  A    between atoms: CA_2092  and  CB_2095
REMARK  1180  A    between atoms: CB_2095  and  CG_2096
REMARK  1181  A    between atoms: N_2105  and  CA_2106
REMARK  1182  A    between atoms: CA_2106  and  C_2107
REMARK  1183  A    between atoms: CA_2106  and  CB_2109
REMARK  1184  A    between atoms: CB_2109  and  CG1_2110
REMARK  1185  A    between atoms: CB_2109  and  CG2_2111
REMARK  1186  A    between atoms: CG1_2110  and  CD1_2112
REMARK  1187  A    between atoms: N_2113  and  CA_2114
REMARK  1188  A    between atoms: CA_2114  and  C_2115
REMARK  1189  A    between atoms: CA_2114  and  CB_2117
REMARK  1190  A    between atoms: CB_2117  and  OG1_2118
REMARK  1191  A    between atoms: CB_2117  and  CG2_2119
REMARK  1192  A    between atoms: N_2120  and  CA_2121
REMARK  1193  A    between atoms: CA_2121  and  C_2122
REMARK  1194  A    between atoms: CA_2121  and  CB_2124
REMARK  1195  A    between atoms: N_2125  and  CA_2126
REMARK  1196  A    between atoms: CA_2126  and  C_2127
REMARK  1197  A    between atoms: CA_2126  and  CB_2129
REMARK  1198  A    between atoms: CB_2129  and  CG_2130
REMARK  1199  A    between atoms: N_2133  and  CA_2134
REMARK  1200  A    between atoms: CA_2134  and  C_2135
REMARK  1201  A    between atoms: CA_2134  and  CB_2137
REMARK  1202  A    between atoms: CB_2137  and  OG_2138
REMARK  1203  A    between atoms: N_2139  and  CA_2140
REMARK  1204  A    between atoms: CA_2140  and  C_2141
REMARK  1205  A    between atoms: CA_2140  and  CB_2143
REMARK  1206  A    between atoms: CB_2143  and  OG_2144
REMARK  1207  A    between atoms: N_2145  and  C_2146
REMARK  1208  A    between atoms: C_2146  and  C_2147
REMARK  1209  A    between atoms: C_2146  and  C_2149
REMARK  1210  A    between atoms: C_2149  and  C_2150
REMARK  1211  A    between atoms: N_2151  and  CA_2152
REMARK  1212  A    between atoms: CA_2152  and  C_2153
REMARK  1213  A    between atoms: CA_2152  and  CB_2155
REMARK  1214  A    between atoms: CB_2155  and  OG_2156
REMARK  1215  A    between atoms: N_2157  and  CA_2158
REMARK  1216  A    between atoms: CA_2158  and  C_2159
REMARK  1217  A    between atoms: CA_2158  and  CB_2161
REMARK  1218  A    between atoms: CB_2161  and  CG_2162
REMARK  1219  A    between atoms: CG_2162  and  CD_2163
REMARK  1220  A    between atoms: CA_2167  and  C_2168
REMARK  1221  A    between atoms: CA_2174  and  C_2175
REMARK  1222  A    between atoms: N_2180  and  CA_2181
REMARK  1223  A    between atoms: CA_2181  and  C_2182
REMARK  1224  A    between atoms: CA_2181  and  CB_2184
REMARK  1225  A    between atoms: CB_2184  and  OG_2185
REMARK  1226  A    between atoms: N_2186  and  CA_2187
REMARK  1227  A    between atoms: CA_2187  and  C_2188
REMARK  1228  A    between atoms: CA_2187  and  CB_2190
REMARK  1229  A    between atoms: CB_2190  and  CG_2191
REMARK  1230  A    between atoms: N_2200  and  CA_2201
REMARK  1231  A    between atoms: CA_2201  and  C_2202
REMARK  1232  A    between atoms: CA_2201  and  CB_2204
REMARK  1233  A    between atoms: CB_2204  and  CG2_2205
REMARK  1234  A    between atoms: CB_2204  and  CG1_2206
REMARK  1235  A    between atoms: N_2207  and  CA_2208
REMARK  1236  A    between atoms: CA_2208  and  C_2209
REMARK  1237  A    between atoms: CA_2208  and  CB_2211
REMARK  1238  A    between atoms: CB_2211  and  OG1_2212
REMARK  1239  A    between atoms: CB_2211  and  CG2_2213
REMARK  1240  A    between atoms: N_2214  and  CA_2215
REMARK  1241  A    between atoms: CA_2215  and  C_2216
REMARK  1242  A    between atoms: CA_2215  and  CB_2218
REMARK  1243  A    between atoms: CB_2218  and  CG_2219
REMARK  1244  A    between atoms: CG_2219  and  CD_2220
REMARK  1245  A    between atoms: N_2223  and  CA_2224
REMARK  1246  A    between atoms: CA_2224  and  C_2225
REMARK  1247  A    between atoms: CA_2224  and  CB_2227
REMARK  1248  A    between atoms: CB_2227  and  CG_2228
REMARK  1249  A    between atoms: CG_2228  and  SD_2229
REMARK  1250  A    between atoms: SD_2229  and  CE_2230
REMARK  1251  A    between atoms: N_2231  and  CA_2232
REMARK  1252  A    between atoms: CA_2232  and  C_2233
REMARK  1253  A    between atoms: CA_2232  and  CB_2235
REMARK  1254  A    between atoms: CB_2235  and  CG_2236
REMARK  1255  A    between atoms: CG_2236  and  CD1_2237
REMARK  1256  A    between atoms: CG_2236  and  CD2_2238
REMARK  1257  A    between atoms: N_2239  and  CA_2240
REMARK  1258  A    between atoms: CA_2240  and  C_2241
REMARK  1259  A    between atoms: CA_2240  and  CB_2243
REMARK  1260  A    between atoms: CB_2243  and  CG_2244
REMARK  1261  A    between atoms: CG_2244  and  CD1_2245
REMARK  1262  A    between atoms: CG_2244  and  CD2_2246
REMARK  1263  A    between atoms: N_2247  and  CA_2248
REMARK  1264  A    between atoms: CA_2248  and  C_2249
REMARK  1265  A    between atoms: CA_2248  and  CB_2251
REMARK  1266  A    between atoms: CB_2251  and  CG_2252
REMARK  1267  A    between atoms: CG_2252  and  CD_2253
REMARK  1268  A    between atoms: N_2256  and  CA_2257
REMARK  1269  A    between atoms: CA_2257  and  C_2258
REMARK  1270  A    between atoms: CA_2257  and  CB_2260
REMARK  1271  A    between atoms: CB_2260  and  CG_2261
REMARK  1272  A    between atoms: CG_2261  and  CD_2262
REMARK  1273  A    between atoms: CD_2262  and  CE_2263
REMARK  1274  A    between atoms: CE_2263  and  NZ_2264
REMARK  1275  A    between atoms: N_2265  and  C_2266
REMARK  1276  A    between atoms: C_2266  and  C_2267
REMARK  1277  A    between atoms: C_2266  and  C_2269
REMARK  1278  A    between atoms: C_2269  and  C_2270
REMARK  1279  A    between atoms: N_2271  and  CA_2272
REMARK  1280  A    between atoms: CA_2272  and  C_2273
REMARK  1281  A    between atoms: CA_2272  and  CB_2275
REMARK  1282  A    between atoms: CB_2275  and  CG_2276
REMARK  1283  A    between atoms: CG_2276  and  CD2_2277
REMARK  1284  A    between atoms: CG_2276  and  CD1_2278
REMARK  1285  A    between atoms: N_2279  and  CA_2280
REMARK  1286  A    between atoms: CA_2280  and  C_2281
REMARK  1287  A    between atoms: CA_2280  and  CB_2283
REMARK  1288  A    between atoms: CB_2283  and  CG_2284
REMARK  1289  A    between atoms: N_2293  and  CA_2294
REMARK  1290  A    between atoms: CA_2294  and  C_2295
REMARK                            x       y       z     vdW  Elec       q    Type
REMARK                         _______ _______ _______ _____ _____    ______ ____
ROOT
ATOM      1  C   UNL     8     -52.117  31.490   5.299  0.00  0.00    +0.000 C 
ATOM      2  C   UNL     8     -51.605  32.180   4.040  0.00  0.00    +0.000 C 
ENDROOT
TORSDOF 0
REMARK  Name = /Users/wangyang/Desktop/Breast_cancer_brain_metastasis/wang_Gene/AIDD/15_Protein_ligand_docking/data_7ztl/protein.pdb
REMARK  1290 active torsions:
REMARK  status: ('A' for Active; 'I' for Inactive)
REMARK    1  A    between atoms: N_1  and  CA_2
REMARK    2  A    between atoms: CA_2  and  C_3
REMARK    3  A    between atoms: N_5  and  CA_6
REMARK    4  A    between atoms: CA_6  and  C_7
REMARK    5  A    between atoms: CA_6  and  CB_9
REMARK    6  A    between atoms: N_10  and  CA_11
REMARK    7  A    between atoms: CA_11  and  C_12
REMARK    8  A    between atoms: CA_11  and  CB_14
REMARK    9  A    between atoms: CB_14  and  CG_15
REMARK   10  A    between atoms: N_24  and  CA_25
REMARK   11  A    between atoms: CA_25  and  C_26
REMARK   12  A    between atoms: CA_25  and  CB_28
REMARK   13  A    between atoms: N_29  and  CA_30
REMARK   14  A    between atoms: CA_30  and  C_31
REMARK   15  A    between atoms: CA_30  and  CB_33
REMARK   16  A    between atoms: CB_33  and  CG_34
REMARK   17  A    between atoms: CG_34  and  CD1_35
REMARK   18  A    between atoms: CG_34  and  CD2_36
REMARK   19  A    between atoms: N_37  and  CA_38
REMARK   20  A    between atoms: CA_38  and  C_39
REMARK   21  A    between atoms: CA_38  and  CB_41
REMARK   22  A    between atoms: CB_41  and  CG_42
REMARK   23  A    between atoms: CG_42  and  CD_43
REMARK   24  A    between atoms: N_46  and  CA_47
REMARK   25  A    between atoms: CA_47  and  C_48
REMARK   26  A    between atoms: CA_47  and  CB_50
REMARK   27  A    between atoms: CB_50  and  CG_51
REMARK   28  A    between atoms: N_54  and  CA_55
REMARK   29  A    between atoms: CA_55  and  C_56
REMARK   30  A    between atoms: CA_55  and  CB_58
REMARK   31  A    between atoms: CB_58  and  CG_59
REMARK   32  A    between atoms: N_65  and  CA_66
REMARK   33  A    between atoms: CA_66  and  C_67
REMARK   34  A    between atoms: CA_66  and  CB_69
REMARK   35  A    between atoms: CB_69  and  CG_70
REMARK   36  A    between atoms: CG_70  and  CD_71
REMARK   37  A    between atoms: N_74  and  CA_75
REMARK   38  A    between atoms: CA_75  and  C_76
REMARK   39  A    between atoms: CA_75  and  CB_78
REMARK   40  A    between atoms: CB_78  and  CG1_79
REMARK   41  A    between atoms: CB_78  and  CG2_80
REMARK   42  A    between atoms: CG1_79  and  CD1_81
REMARK   43  A    between atoms: N_82  and  CA_83
REMARK   44  A    between atoms: CA_83  and  C_84
REMARK   45  A    between atoms: N_86  and  CA_87
REMARK   46  A    between atoms: CA_87  and  C_88
REMARK   47  A    between atoms: CA_87  and  CB_90
REMARK   48  A    between atoms: CB_90  and  CG_91
REMARK   49  A    between atoms: CG_91  and  CD_92
REMARK   50  A    between atoms: CD_92  and  NE_93
REMARK   51  A    between atoms: CA_98  and  C_99
REMARK   52  A    between atoms: N_104  and  CA_105
REMARK   53  A    between atoms: CA_105  and  C_106
REMARK   54  A    between atoms: CA_105  and  CB_108
REMARK   55  A    between atoms: CB_108  and  CG_109
REMARK   56  A    between atoms: CG_109  and  CD1_110
REMARK   57  A    between atoms: CG_109  and  CD2_111
REMARK   58  A    between atoms: N_112  and  CA_113
REMARK   59  A    between atoms: CA_113  and  C_114
REMARK   60  A    between atoms: N_116  and  C_117
REMARK   61  A    between atoms: C_117  and  C_118
REMARK   62  A    between atoms: C_117  and  C_120
REMARK   63  A    between atoms: C_120  and  C_121
REMARK   64  A    between atoms: C_121  and  C_122
REMARK   65  A    between atoms: N_123  and  CA_124
REMARK   66  A    between atoms: CA_124  and  C_125
REMARK   67  A    between atoms: N_127  and  CA_128
REMARK   68  A    between atoms: CA_128  and  C_129
REMARK   69  A    between atoms: CA_128  and  CB_131
REMARK   70  A    between atoms: CB_131  and  CG_132
REMARK   71  A    between atoms: CG_132  and  CD_133
REMARK   72  A    between atoms: CD_133  and  CE_134
REMARK   73  A    between atoms: CE_134  and  NZ_135
REMARK   74  A    between atoms: N_136  and  CA_137
REMARK   75  A    between atoms: CA_137  and  C_138
REMARK   76  A    between atoms: CA_137  and  CB_140
REMARK   77  A    between atoms: CB_140  and  CG_141
REMARK   78  A    between atoms: N_147  and  CA_148
REMARK   79  A    between atoms: CA_148  and  C_149
REMARK   80  A    between atoms: N_151  and  CA_152
REMARK   81  A    between atoms: CA_152  and  C_153
REMARK   82  A    between atoms: CA_152  and  CB_155
REMARK   83  A    between atoms: CB_155  and  CG_156
REMARK   84  A    between atoms: N_159  and  CA_160
REMARK   85  A    between atoms: CA_160  and  C_161
REMARK   86  A    between atoms: CA_160  and  CB_163
REMARK   87  A    between atoms: CB_163  and  CG1_164
REMARK   88  A    between atoms: CB_163  and  CG2_165
REMARK   89  A    between atoms: N_166  and  CA_167
REMARK   90  A    between atoms: CA_167  and  C_168
REMARK   91  A    between atoms: CA_167  and  CB_170
REMARK   92  A    between atoms: CB_170  and  CG_171
REMARK   93  A    between atoms: CZ_176  and  OH_177
REMARK   94  A    between atoms: N_178  and  CA_179
REMARK   95  A    between atoms: CA_179  and  C_180
REMARK   96  A    between atoms: CA_179  and  CB_182
REMARK   97  A    between atoms: CB_182  and  CG_183
REMARK   98  A    between atoms: CG_183  and  CD1_184
REMARK   99  A    between atoms: CG_183  and  CD2_185
REMARK  100  A    between atoms: N_186  and  CA_187
REMARK  101  A    between atoms: CA_187  and  C_188
REMARK  102  A    between atoms: CA_187  and  CB_190
REMARK  103  A    between atoms: N_191  and  CA_192
REMARK  104  A    between atoms: CA_192  and  C_193
REMARK  105  A    between atoms: CA_192  and  CB_195
REMARK  106  A    between atoms: CB_195  and  CG_196
REMARK  107  A    between atoms: CG_196  and  CD_197
REMARK  108  A    between atoms: CD_197  and  NE_198
REMARK  109  A    between atoms: N_202  and  CA_203
REMARK  110  A    between atoms: CA_203  and  C_204
REMARK  111  A    between atoms: CA_203  and  CB_206
REMARK  112  A    between atoms: CB_206  and  CG_207
REMARK  113  A    between atoms: CG_207  and  CD_208
REMARK  114  A    between atoms: N_211  and  CA_212
REMARK  115  A    between atoms: CA_212  and  C_213
REMARK  116  A    between atoms: CA_212  and  CB_215
REMARK  117  A    between atoms: CB_215  and  CG_216
REMARK  118  A    between atoms: CG_216  and  CD_217
REMARK  119  A    between atoms: CD_217  and  CE_218
REMARK  120  A    between atoms: CE_218  and  NZ_219
REMARK  121  A    between atoms: N_220  and  CA_221
REMARK  122  A    between atoms: CA_221  and  C_222
REMARK  123  A    between atoms: CA_221  and  CB_224
REMARK  124  A    between atoms: N_225  and  CA_226
REMARK  125  A    between atoms: CA_226  and  C_227
REMARK  126  A    between atoms: CA_226  and  CB_229
REMARK  127  A    between atoms: CB_229  and  OG_230
REMARK  128  A    between atoms: N_231  and  CA_232
REMARK  129  A    between atoms: CA_232  and  C_233
REMARK  130  A    between atoms: CA_232  and  CB_235
REMARK  131  A    between atoms: CB_235  and  CG_236
REMARK  132  A    between atoms: CG_236  and  CD_237
REMARK  133  A    between atoms: CD_237  and  CE_238
REMARK  134  A    between atoms: CE_238  and  NZ_239
REMARK  135  A    between atoms: N_240  and  CA_241
REMARK  136  A    between atoms: CA_241  and  C_242
REMARK  137  A    between atoms: CA_241  and  CB_244
REMARK  138  A    between atoms: CB_244  and  CG_245
REMARK  139  A    between atoms: N_251  and  CA_252
REMARK  140  A    between atoms: CA_252  and  C_253
REMARK  141  A    between atoms: CA_252  and  CB_255
REMARK  142  A    between atoms: CB_255  and  CG1_256
REMARK  143  A    between atoms: CB_255  and  CG2_257
REMARK  144  A    between atoms: CG1_256  and  CD1_258
REMARK  145  A    between atoms: N_259  and  CA_260
REMARK  146  A    between atoms: CA_260  and  C_261
REMARK  147  A    between atoms: CA_260  and  CB_263
REMARK  148  A    between atoms: CB_263  and  CG_264
REMARK  149  A    between atoms: CG_264  and  CD1_265
REMARK  150  A    between atoms: CG_264  and  CD2_266
REMARK  151  A    between atoms: N_267  and  CA_268
REMARK  152  A    between atoms: CA_268  and  C_269
REMARK  153  A    between atoms: CA_268  and  CB_271
REMARK  154  A    between atoms: N_272  and  CA_273
REMARK  155  A    between atoms: CA_273  and  C_274
REMARK  156  A    between atoms: CA_273  and  CB_276
REMARK  157  A    between atoms: CB_276  and  CG_277
REMARK  158  A    between atoms: CG_277  and  CD2_278
REMARK  159  A    between atoms: CG_277  and  CD1_279
REMARK  160  A    between atoms: N_280  and  CA_281
REMARK  161  A    between atoms: CA_281  and  C_282
REMARK  162  A    between atoms: CA_281  and  CB_284
REMARK  163  A    between atoms: CB_284  and  CG_285
REMARK  164  A    between atoms: CG_285  and  CD_286
REMARK  165  A    between atoms: CD_286  and  CE_287
REMARK  166  A    between atoms: CE_287  and  NZ_288
REMARK  167  A    between atoms: N_289  and  CA_290
REMARK  168  A    between atoms: CA_290  and  C_291
REMARK  169  A    between atoms: CA_290  and  CB_293
REMARK  170  A    between atoms: CB_293  and  CG2_294
REMARK  171  A    between atoms: CB_293  and  CG1_295
REMARK  172  A    between atoms: N_296  and  CA_297
REMARK  173  A    between atoms: CA_297  and  C_298
REMARK  174  A    between atoms: CA_297  and  CB_300
REMARK  175  A    between atoms: CB_300  and  CG_301
REMARK  176  A    between atoms: CG_301  and  CD1_302
REMARK  177  A    between atoms: CG_301  and  CD2_303
REMARK  178  A    between atoms: N_304  and  CA_305
REMARK  179  A    between atoms: CA_305  and  C_306
REMARK  180  A    between atoms: CA_305  and  CB_308
REMARK  181  A    between atoms: CB_308  and  CG_309
REMARK  182  A    between atoms: N_315  and  CA_316
REMARK  183  A    between atoms: CA_316  and  C_317
REMARK  184  A    between atoms: CA_316  and  CB_319
REMARK  185  A    between atoms: CB_319  and  CG_320
REMARK  186  A    between atoms: CG_320  and  CD_321
REMARK  187  A    between atoms: CD_321  and  CE_322
REMARK  188  A    between atoms: CE_322  and  NZ_323
REMARK  189  A    between atoms: N_324  and  CA_325
REMARK  190  A    between atoms: CA_325  and  C_326
REMARK  191  A    between atoms: CA_325  and  CB_328
REMARK  192  A    between atoms: N_329  and  CA_330
REMARK  193  A    between atoms: CA_330  and  C_331
REMARK  194  A    between atoms: CA_330  and  CB_333
REMARK  195  A    between atoms: CB_333  and  CG_334
REMARK  196  A    between atoms: CG_334  and  CD_335
REMARK  197  A    between atoms: N_338  and  CA_339
REMARK  198  A    between atoms: CA_339  and  C_340
REMARK  199  A    between atoms: CA_339  and  CB_342
REMARK  200  A    between atoms: CB_342  and  CG_343
REMARK  201  A    between atoms: CG_343  and  CD1_344
REMARK  202  A    between atoms: CG_343  and  CD2_345
REMARK  203  A    between atoms: N_346  and  CA_347
REMARK  204  A    between atoms: CA_347  and  C_348
REMARK  205  A    between atoms: CA_347  and  CB_350
REMARK  206  A    between atoms: CB_350  and  CG_351
REMARK  207  A    between atoms: CG_351  and  CD_352
REMARK  208  A    between atoms: N_355  and  C_356
REMARK  209  A    between atoms: C_356  and  C_357
REMARK  210  A    between atoms: C_356  and  C_359
REMARK  211  A    between atoms: C_359  and  C_360
REMARK  212  A    between atoms: N_361  and  CA_362
REMARK  213  A    between atoms: CA_362  and  C_363
REMARK  214  A    between atoms: CA_362  and  CB_365
REMARK  215  A    between atoms: N_366  and  CA_367
REMARK  216  A    between atoms: CA_367  and  C_368
REMARK  217  A    between atoms: N_370  and  CA_371
REMARK  218  A    between atoms: CA_371  and  C_372
REMARK  219  A    between atoms: CA_371  and  CB_374
REMARK  220  A    between atoms: CB_374  and  CG2_375
REMARK  221  A    between atoms: CB_374  and  CG1_376
REMARK  222  A    between atoms: N_377  and  CA_378
REMARK  223  A    between atoms: CA_378  and  C_379
REMARK  224  A    between atoms: CA_378  and  CB_381
REMARK  225  A    between atoms: CB_381  and  CG_382
REMARK  226  A    between atoms: CG_382  and  CD_383
REMARK  227  A    between atoms: N_386  and  CA_387
REMARK  228  A    between atoms: CA_387  and  C_388
REMARK  229  A    between atoms: CA_387  and  CB_390
REMARK  230  A    between atoms: CB_390  and  CG_391
REMARK  231  A    between atoms: N_396  and  CA_397
REMARK  232  A    between atoms: CA_397  and  C_398
REMARK  233  A    between atoms: CA_397  and  CB_400
REMARK  234  A    between atoms: CB_400  and  CG_401
REMARK  235  A    between atoms: CG_401  and  CD_402
REMARK  236  A    between atoms: N_405  and  CA_406
REMARK  237  A    between atoms: CA_406  and  C_407
REMARK  238  A    between atoms: CA_406  and  CB_409
REMARK  239  A    between atoms: CB_409  and  CG_410
REMARK  240  A    between atoms: CG_410  and  CD2_411
REMARK  241  A    between atoms: CG_410  and  CD1_412
REMARK  242  A    between atoms: N_413  and  CA_414
REMARK  243  A    between atoms: CA_414  and  C_415
REMARK  244  A    between atoms: CA_414  and  CB_417
REMARK  245  A    between atoms: CB_417  and  CG_418
REMARK  246  A    between atoms: CG_418  and  CD_419
REMARK  247  A    between atoms: CD_419  and  NE_420
REMARK  248  A    between atoms: N_424  and  CA_425
REMARK  249  A    between atoms: CA_425  and  C_426
REMARK  250  A    between atoms: CA_425  and  CB_428
REMARK  251  A    between atoms: CB_428  and  CG_429
REMARK  252  A    between atoms: CG_429  and  CD_430
REMARK  253  A    between atoms: CD_430  and  NE_431
REMARK  254  A    between atoms: N_435  and  CA_436
REMARK  255  A    between atoms: CA_436  and  C_437
REMARK  256  A    between atoms: CA_436  and  CB_439
REMARK  257  A    between atoms: CB_439  and  CG_440
REMARK  258  A    between atoms: CG_440  and  CD_441
REMARK  259  A    between atoms: N_444  and  CA_445
REMARK  260  A    between atoms: CA_445  and  C_446
REMARK  261  A    between atoms: CA_445  and  CB_448
REMARK  262  A    between atoms: CB_448  and  CG1_449
REMARK  263  A    between atoms: CB_448  and  CG2_450
REMARK  264  A    between atoms: N_451  and  C_452
REMARK  265  A    between atoms: C_452  and  C_453
REMARK  266  A    between atoms: C_452  and  C_455
REMARK  267  A    between atoms: C_455  and  C_456
REMARK  268  A    between atoms: N_457  and  CA_458
REMARK  269  A    between atoms: CA_458  and  C_459
REMARK  270  A    between atoms: CA_458  and  CB_461
REMARK  271  A    between atoms: CB_461  and  CG1_462
REMARK  272  A    between atoms: CB_461  and  CG2_463
REMARK  273  A    between atoms: CG1_462  and  CD1_464
REMARK  274  A    between atoms: N_465  and  CA_466
REMARK  275  A    between atoms: CA_466  and  C_467
REMARK  276  A    between atoms: CA_466  and  CB_469
REMARK  277  A    between atoms: CB_469  and  CG_470
REMARK  278  A    between atoms: CG_470  and  CD_471
REMARK  279  A    between atoms: N_474  and  C_475
REMARK  280  A    between atoms: C_475  and  C_476
REMARK  281  A    between atoms: C_475  and  C_478
REMARK  282  A    between atoms: C_478  and  O_479
REMARK  283  A    between atoms: N_480  and  C_481
REMARK  284  A    between atoms: C_481  and  C_482
REMARK  285  A    between atoms: C_481  and  C_484
REMARK  286  A    between atoms: C_484  and  C_485
REMARK  287  A    between atoms: N_490  and  C_491
REMARK  288  A    between atoms: C_491  and  C_492
REMARK  289  A    between atoms: C_491  and  C_494
REMARK  290  A    between atoms: C_494  and  C_495
REMARK  291  A    between atoms: C_495  and  C_496
REMARK  292  A    between atoms: C_495  and  C_497
REMARK  293  A    between atoms: N_498  and  C_499
REMARK  294  A    between atoms: C_499  and  C_500
REMARK  295  A    between atoms: C_499  and  C_502
REMARK  296  A    between atoms: C_502  and  C_503
REMARK  297  A    between atoms: C_503  and  C_504
REMARK  298  A    between atoms: C_504  and  N_505
REMARK  299  A    between atoms: N_509  and  C_510
REMARK  300  A    between atoms: C_510  and  C_511
REMARK  301  A    between atoms: C_510  and  C_513
REMARK  302  A    between atoms: C_513  and  C_514
REMARK  303  A    between atoms: C_520  and  C_521
REMARK  304  A    between atoms: N_526  and  C_527
REMARK  305  A    between atoms: C_527  and  C_528
REMARK  306  A    between atoms: C_527  and  C_530
REMARK  307  A    between atoms: C_530  and  C_531
REMARK  308  A    between atoms: N_534  and  C_535
REMARK  309  A    between atoms: C_535  and  C_536
REMARK  310  A    between atoms: C_535  and  C_538
REMARK  311  A    between atoms: C_538  and  C_539
REMARK  312  A    between atoms: C_538  and  C_540
REMARK  313  A    between atoms: C_539  and  C_541
REMARK  314  A    between atoms: N_542  and  C_543
REMARK  315  A    between atoms: C_543  and  C_544
REMARK  316  A    between atoms: C_543  and  C_546
REMARK  317  A    between atoms: C_546  and  C_547
REMARK  318  A    between atoms: C_547  and  C_548
REMARK  319  A    between atoms: C_547  and  C_549
REMARK  320  A    between atoms: N_550  and  C_551
REMARK  321  A    between atoms: C_551  and  C_552
REMARK  322  A    between atoms: C_551  and  C_554
REMARK  323  A    between atoms: C_554  and  C_555
REMARK  324  A    between atoms: C_555  and  C_556
REMARK  325  A    between atoms: C_556  and  N_557
REMARK  326  A    between atoms: N_561  and  C_562
REMARK  327  A    between atoms: C_562  and  C_567
REMARK  328  A    between atoms: C_563  and  C_564
REMARK  329  A    between atoms: C_568  and  C_569
REMARK  330  A    between atoms: C_568  and  C_571
REMARK  331  A    between atoms: C_569  and  C_572
REMARK  332  A    between atoms: C_569  and  C_573
REMARK  333  A    between atoms: C_570  and  C_573
REMARK  334  A    between atoms: N_574  and  CA_575
REMARK  335  A    between atoms: CA_575  and  C_576
REMARK  336  A    between atoms: CA_575  and  CB_578
REMARK  337  A    between atoms: CB_578  and  CG_579
REMARK  338  A    between atoms: CZ_584  and  OH_585
REMARK  339  A    between atoms: N_586  and  CA_587
REMARK  340  A    between atoms: CA_587  and  C_588
REMARK  341  A    between atoms: N_590  and  CA_591
REMARK  342  A    between atoms: CA_591  and  C_592
REMARK  343  A    between atoms: CA_591  and  CB_594
REMARK  344  A    between atoms: CB_594  and  CG_595
REMARK  345  A    between atoms: CZ_600  and  OH_601
REMARK  346  A    between atoms: N_602  and  CA_603
REMARK  347  A    between atoms: CA_603  and  C_604
REMARK  348  A    between atoms: CA_603  and  CB_606
REMARK  349  A    between atoms: CB_606  and  CG_607
REMARK  350  A    between atoms: N_613  and  CA_614
REMARK  351  A    between atoms: CA_614  and  C_615
REMARK  352  A    between atoms: CA_614  and  CB_617
REMARK  353  A    between atoms: CB_617  and  CG_618
REMARK  354  A    between atoms: N_623  and  CA_624
REMARK  355  A    between atoms: CA_624  and  C_625
REMARK  356  A    between atoms: CA_624  and  CB_627
REMARK  357  A    between atoms: CB_627  and  CG_628
REMARK  358  A    between atoms: N_631  and  CA_632
REMARK  359  A    between atoms: CA_632  and  C_633
REMARK  360  A    between atoms: CA_632  and  CB_635
REMARK  361  A    between atoms: N_636  and  CA_637
REMARK  362  A    between atoms: CA_637  and  C_638
REMARK  363  A    between atoms: CA_637  and  CB_640
REMARK  364  A    between atoms: CB_640  and  OG1_641
REMARK  365  A    between atoms: CB_640  and  CG2_642
REMARK  366  A    between atoms: N_643  and  CA_644
REMARK  367  A    between atoms: CA_644  and  C_645
REMARK  368  A    between atoms: CA_644  and  CB_647
REMARK  369  A    between atoms: CB_647  and  CG_648
REMARK  370  A    between atoms: CG_648  and  CD_649
REMARK  371  A    between atoms: CD_649  and  NE_650
REMARK  372  A    between atoms: N_654  and  CA_655
REMARK  373  A    between atoms: CA_655  and  C_656
REMARK  374  A    between atoms: CA_655  and  CB_658
REMARK  375  A    between atoms: CB_658  and  CG1_659
REMARK  376  A    between atoms: CB_658  and  CG2_660
REMARK  377  A    between atoms: N_661  and  CA_662
REMARK  378  A    between atoms: CA_662  and  C_663
REMARK  379  A    between atoms: CA_662  and  CB_665
REMARK  380  A    between atoms: CB_665  and  CG_666
REMARK  381  A    between atoms: CZ_671  and  OH_672
REMARK  382  A    between atoms: N_673  and  CA_674
REMARK  383  A    between atoms: CA_674  and  C_675
REMARK  384  A    between atoms: CA_674  and  CB_677
REMARK  385  A    between atoms: CB_677  and  CG_678
REMARK  386  A    between atoms: CG_678  and  CD2_679
REMARK  387  A    between atoms: CG_678  and  CD1_680
REMARK  388  A    between atoms: N_681  and  CA_682
REMARK  389  A    between atoms: CA_682  and  C_683
REMARK  390  A    between atoms: CA_682  and  CB_685
REMARK  391  A    between atoms: CB_685  and  CG1_686
REMARK  392  A    between atoms: CB_685  and  CG2_687
REMARK  393  A    between atoms: CG1_686  and  CD1_688
REMARK  394  A    between atoms: N_689  and  CA_690
REMARK  395  A    between atoms: CA_690  and  C_691
REMARK  396  A    between atoms: CA_690  and  CB_693
REMARK  397  A    between atoms: CB_693  and  CG_694
REMARK  398  A    between atoms: CG_694  and  CD2_695
REMARK  399  A    between atoms: CG_694  and  CD1_696
REMARK  400  A    between atoms: N_697  and  CA_698
REMARK  401  A    between atoms: CA_698  and  C_699
REMARK  402  A    between atoms: CA_698  and  CB_701
REMARK  403  A    between atoms: CB_701  and  CG_702
REMARK  404  A    between atoms: CG_702  and  CD_703
REMARK  405  A    between atoms: N_706  and  CA_707
REMARK  406  A    between atoms: CA_707  and  C_708
REMARK  407  A    between atoms: CA_707  and  CB_710
REMARK  408  A    between atoms: CB_710  and  CG_711
REMARK  409  A    between atoms: CZ_716  and  OH_717
REMARK  410  A    between atoms: N_718  and  CA_719
REMARK  411  A    between atoms: CA_719  and  C_720
REMARK  412  A    between atoms: CA_719  and  CB_722
REMARK  413  A    between atoms: CA_724  and  C_725
REMARK  414  A    between atoms: N_730  and  CA_731
REMARK  415  A    between atoms: CA_731  and  C_732
REMARK  416  A    between atoms: CA_731  and  CB_734
REMARK  417  A    between atoms: CB_734  and  CG_735
REMARK  418  A    between atoms: CG_735  and  CD1_736
REMARK  419  A    between atoms: CG_735  and  CD2_737
REMARK  420  A    between atoms: N_738  and  CA_739
REMARK  421  A    between atoms: CA_739  and  C_740
REMARK  422  A    between atoms: N_742  and  CA_743
REMARK  423  A    between atoms: CA_743  and  C_744
REMARK  424  A    between atoms: CA_743  and  CB_746
REMARK  425  A    between atoms: CB_746  and  OG1_747
REMARK  426  A    between atoms: CB_746  and  CG2_748
REMARK  427  A    between atoms: N_749  and  CA_750
REMARK  428  A    between atoms: CA_750  and  C_751
REMARK  429  A    between atoms: CA_750  and  CB_753
REMARK  430  A    between atoms: CB_753  and  CG2_754
REMARK  431  A    between atoms: CB_753  and  CG1_755
REMARK  432  A    between atoms: N_756  and  CA_757
REMARK  433  A    between atoms: CA_757  and  C_758
REMARK  434  A    between atoms: CA_757  and  CB_760
REMARK  435  A    between atoms: CB_760  and  CG_761
REMARK  436  A    between atoms: CZ_766  and  OH_767
REMARK  437  A    between atoms: N_768  and  C_769
REMARK  438  A    between atoms: C_769  and  C_770
REMARK  439  A    between atoms: C_769  and  C_772
REMARK  440  A    between atoms: C_772  and  C_773
REMARK  441  A    between atoms: N_774  and  CA_775
REMARK  442  A    between atoms: CA_775  and  C_776
REMARK  443  A    between atoms: CA_775  and  CB_778
REMARK  444  A    between atoms: CB_778  and  CG_779
REMARK  445  A    between atoms: CG_779  and  CD_780
REMARK  446  A    between atoms: N_783  and  CA_784
REMARK  447  A    between atoms: CA_784  and  C_785
REMARK  448  A    between atoms: CA_784  and  CB_787
REMARK  449  A    between atoms: CB_787  and  CG_788
REMARK  450  A    between atoms: CG_788  and  CD2_789
REMARK  451  A    between atoms: CG_788  and  CD1_790
REMARK  452  A    between atoms: N_791  and  CA_792
REMARK  453  A    between atoms: CA_792  and  C_793
REMARK  454  A    between atoms: CA_792  and  CB_795
REMARK  455  A    between atoms: CB_795  and  CG_796
REMARK  456  A    between atoms: CG_796  and  CD_797
REMARK  457  A    between atoms: N_800  and  CA_801
REMARK  458  A    between atoms: CA_801  and  C_802
REMARK  459  A    between atoms: CA_801  and  CB_804
REMARK  460  A    between atoms: CB_804  and  CG_805
REMARK  461  A    between atoms: CG_805  and  CD_806
REMARK  462  A    between atoms: CD_806  and  CE_807
REMARK  463  A    between atoms: CE_807  and  NZ_808
REMARK  464  A    between atoms: N_809  and  CA_810
REMARK  465  A    between atoms: CA_810  and  C_811
REMARK  466  A    between atoms: CA_810  and  CB_813
REMARK  467  A    between atoms: CB_813  and  CG_814
REMARK  468  A    between atoms: CG_814  and  CD1_815
REMARK  469  A    between atoms: CG_814  and  CD2_816
REMARK  470  A    between atoms: N_817  and  CA_818
REMARK  471  A    between atoms: CA_818  and  C_819
REMARK  472  A    between atoms: CA_818  and  CB_821
REMARK  473  A    between atoms: CB_821  and  OG_822
REMARK  474  A    between atoms: N_823  and  CA_824
REMARK  475  A    between atoms: CA_824  and  C_825
REMARK  476  A    between atoms: CA_824  and  CB_827
REMARK  477  A    between atoms: CB_827  and  CG_828
REMARK  478  A    between atoms: CG_828  and  CD_829
REMARK  479  A    between atoms: CD_829  and  CE_830
REMARK  480  A    between atoms: CE_830  and  NZ_831
REMARK  481  A    between atoms: N_832  and  CA_833
REMARK  482  A    between atoms: CA_833  and  C_834
REMARK  483  A    between atoms: CA_833  and  CB_836
REMARK  484  A    between atoms: CB_836  and  CG_837
REMARK  485  A    between atoms: N_843  and  CA_844
REMARK  486  A    between atoms: CA_844  and  C_845
REMARK  487  A    between atoms: CA_844  and  CB_847
REMARK  488  A    between atoms: CB_847  and  CG_848
REMARK  489  A    between atoms: N_851  and  CA_852
REMARK  490  A    between atoms: CA_852  and  C_853
REMARK  491  A    between atoms: CA_852  and  CB_855
REMARK  492  A    between atoms: CB_855  and  CG_856
REMARK  493  A    between atoms: CG_856  and  CD_857
REMARK  494  A    between atoms: N_860  and  CA_861
REMARK  495  A    between atoms: CA_861  and  C_862
REMARK  496  A    between atoms: CA_861  and  CB_864
REMARK  497  A    between atoms: CB_864  and  CG_865
REMARK  498  A    between atoms: CG_865  and  CD_866
REMARK  499  A    between atoms: N_869  and  CA_870
REMARK  500  A    between atoms: CA_870  and  C_871
REMARK  501  A    between atoms: CA_870  and  CB_873
REMARK  502  A    between atoms: CB_873  and  CG_874
REMARK  503  A    between atoms: CG_874  and  CD_875
REMARK  504  A    between atoms: CD_875  and  NE_876
REMARK  505  A    between atoms: N_880  and  CA_881
REMARK  506  A    between atoms: CA_881  and  C_882
REMARK  507  A    between atoms: CA_881  and  CB_884
REMARK  508  A    between atoms: CB_884  and  OG1_885
REMARK  509  A    between atoms: CB_884  and  CG2_886
REMARK  510  A    between atoms: N_887  and  CA_888
REMARK  511  A    between atoms: CA_888  and  C_889
REMARK  512  A    between atoms: CA_888  and  CB_891
REMARK  513  A    between atoms: N_892  and  CA_893
REMARK  514  A    between atoms: CA_893  and  C_894
REMARK  515  A    between atoms: CA_893  and  CB_896
REMARK  516  A    between atoms: CB_896  and  OG1_897
REMARK  517  A    between atoms: CB_896  and  CG2_898
REMARK  518  A    between atoms: N_899  and  CA_900
REMARK  519  A    between atoms: CA_900  and  C_901
REMARK  520  A    between atoms: CA_900  and  CB_903
REMARK  521  A    between atoms: CB_903  and  CG_904
REMARK  522  A    between atoms: CZ_909  and  OH_910
REMARK  523  A    between atoms: N_911  and  CA_912
REMARK  524  A    between atoms: CA_912  and  C_913
REMARK  525  A    between atoms: CA_912  and  CB_915
REMARK  526  A    between atoms: CB_915  and  CG1_916
REMARK  527  A    between atoms: CB_915  and  CG2_917
REMARK  528  A    between atoms: CG1_916  and  CD1_918
REMARK  529  A    between atoms: N_919  and  CA_920
REMARK  530  A    between atoms: CA_920  and  C_921
REMARK  531  A    between atoms: CA_920  and  CB_923
REMARK  532  A    between atoms: CB_923  and  OG1_924
REMARK  533  A    between atoms: CB_923  and  CG2_925
REMARK  534  A    between atoms: N_926  and  CA_927
REMARK  535  A    between atoms: CA_927  and  C_928
REMARK  536  A    between atoms: CA_927  and  CB_930
REMARK  537  A    between atoms: CB_930  and  CG_931
REMARK  538  A    between atoms: CG_931  and  CD_932
REMARK  539  A    between atoms: N_935  and  CA_936
REMARK  540  A    between atoms: CA_936  and  C_937
REMARK  541  A    between atoms: CA_936  and  CB_939
REMARK  542  A    between atoms: CB_939  and  CG_940
REMARK  543  A    between atoms: CG_940  and  CD2_941
REMARK  544  A    between atoms: CG_940  and  CD1_942
REMARK  545  A    between atoms: N_943  and  CA_944
REMARK  546  A    between atoms: CA_944  and  C_945
REMARK  547  A    between atoms: CA_944  and  CB_947
REMARK  548  A    between atoms: N_948  and  CA_949
REMARK  549  A    between atoms: CA_949  and  C_950
REMARK  550  A    between atoms: CA_949  and  CB_952
REMARK  551  A    between atoms: CB_952  and  CG_953
REMARK  552  A    between atoms: N_956  and  CA_957
REMARK  553  A    between atoms: CA_957  and  C_958
REMARK  554  A    between atoms: CA_957  and  CB_960
REMARK  555  A    between atoms: N_961  and  CA_962
REMARK  556  A    between atoms: CA_962  and  C_963
REMARK  557  A    between atoms: CA_962  and  CB_965
REMARK  558  A    between atoms: CB_965  and  CG_966
REMARK  559  A    between atoms: CG_966  and  CD2_967
REMARK  560  A    between atoms: CG_966  and  CD1_968
REMARK  561  A    between atoms: N_969  and  CA_970
REMARK  562  A    between atoms: CA_970  and  C_971
REMARK  563  A    between atoms: CA_970  and  CB_973
REMARK  564  A    between atoms: CB_973  and  OG_974
REMARK  565  A    between atoms: N_975  and  CA_976
REMARK  566  A    between atoms: CA_976  and  C_977
REMARK  567  A    between atoms: CA_976  and  CB_979
REMARK  568  A    between atoms: CB_979  and  CG_980
REMARK  569  A    between atoms: CZ_985  and  OH_986
REMARK  570  A    between atoms: N_987  and  CA_988
REMARK  571  A    between atoms: CA_988  and  C_989
REMARK  572  A    between atoms: CA_988  and  CB_991
REMARK  573  A    between atoms: CB_991  and  SG_992
REMARK  574  A    between atoms: N_993  and  CA_994
REMARK  575  A    between atoms: CA_994  and  C_995
REMARK  576  A    between atoms: CA_994  and  CB_997
REMARK  577  A    between atoms: CB_997  and  CG_998
REMARK  578  A    between atoms: N_1003  and  C_1004
REMARK  579  A    between atoms: C_1004  and  C_1005
REMARK  580  A    between atoms: C_1004  and  C_1007
REMARK  581  A    between atoms: C_1007  and  O_1008
REMARK  582  A    between atoms: N_1009  and  C_1010
REMARK  583  A    between atoms: C_1010  and  C_1011
REMARK  584  A    between atoms: C_1010  and  C_1013
REMARK  585  A    between atoms: C_1013  and  C_1014
REMARK  586  A    between atoms: C_1014  and  C_1015
REMARK  587  A    between atoms: C_1015  and  C_1016
REMARK  588  A    between atoms: C_1016  and  N_1017
REMARK  589  A    between atoms: N_1018  and  C_1019
REMARK  590  A    between atoms: C_1020  and  C_1021
REMARK  591  A    between atoms: C_1020  and  C_1024
REMARK  592  A    between atoms: C_1023  and  C_1026
REMARK  593  A    between atoms: C_1025  and  C_1026
REMARK  594  A    between atoms: C_1027  and  N_1029
REMARK  595  A    between atoms: C_1028  and  N_1030
REMARK  596  A    between atoms: N_1037  and  C_1038
REMARK  597  A    between atoms: C_1038  and  C_1039
REMARK  598  A    between atoms: C_1038  and  C_1041
REMARK  599  A    between atoms: C_1041  and  C_1042
REMARK  600  A    between atoms: C_1041  and  C_1043
REMARK  601  A    between atoms: N_1044  and  C_1045
REMARK  602  A    between atoms: C_1045  and  C_1046
REMARK  603  A    between atoms: C_1045  and  C_1048
REMARK  604  A    between atoms: C_1048  and  C_1049
REMARK  605  A    between atoms: C_1048  and  C_1050
REMARK  606  A    between atoms: C_1049  and  C_1051
REMARK  607  A    between atoms: N_1052  and  C_1053
REMARK  608  A    between atoms: C_1053  and  C_1054
REMARK  609  A    between atoms: C_1053  and  C_1056
REMARK  610  A    between atoms: C_1056  and  C_1057
REMARK  611  A    between atoms: N_1062  and  C_1063
REMARK  612  A    between atoms: C_1063  and  C_1064
REMARK  613  A    between atoms: C_1063  and  C_1066
REMARK  614  A    between atoms: C_1066  and  C_1067
REMARK  615  A    between atoms: C_1067  and  C_1068
REMARK  616  A    between atoms: C_1068  and  N_1069
REMARK  617  A    between atoms: N_1073  and  C_1074
REMARK  618  A    between atoms: C_1074  and  C_1077
REMARK  619  A    between atoms: C_1077  and  C_1078
REMARK  620  A    between atoms: N_1081  and  C_1084
REMARK  621  A    between atoms: C_1083  and  C_1085
REMARK  622  A    between atoms: C_1085  and  C_1086
REMARK  623  A    between atoms: C_1085  and  O_1087
REMARK  624  A    between atoms: C_1085  and  N_1097
REMARK  625  A    between atoms: C_1089  and  C_1094
REMARK  626  A    between atoms: C_1090  and  C_1091
REMARK  627  A    between atoms: C_1093  and  C_1094
REMARK  628  A    between atoms: C_1098  and  C_1099
REMARK  629  A    between atoms: C_1098  and  C_1101
REMARK  630  A    between atoms: C_1101  and  C_1102
REMARK  631  A    between atoms: C_1102  and  C_1103
REMARK  632  A    between atoms: C_1103  and  C_1104
REMARK  633  A    between atoms: C_1104  and  N_1105
REMARK  634  A    between atoms: C_1107  and  C_1108
REMARK  635  A    between atoms: N_1113  and  CA_1114
REMARK  636  A    between atoms: CA_1114  and  C_1115
REMARK  637  A    between atoms: CA_1114  and  CB_1117
REMARK  638  A    between atoms: CB_1117  and  CG_1118
REMARK  639  A    between atoms: CG_1118  and  CD_1119
REMARK  640  A    between atoms: N_1122  and  CA_1123
REMARK  641  A    between atoms: CA_1123  and  C_1124
REMARK  642  A    between atoms: CA_1123  and  CB_1126
REMARK  643  A    between atoms: CB_1126  and  CG_1127
REMARK  644  A    between atoms: N_1130  and  CA_1131
REMARK  645  A    between atoms: CA_1131  and  C_1132
REMARK  646  A    between atoms: CA_1131  and  CB_1134
REMARK  647  A    between atoms: CB_1134  and  CG_1135
REMARK  648  A    between atoms: CG_1135  and  CD2_1136
REMARK  649  A    between atoms: CG_1135  and  CD1_1137
REMARK  650  A    between atoms: N_1138  and  CA_1139
REMARK  651  A    between atoms: CA_1139  and  C_1140
REMARK  652  A    between atoms: CA_1139  and  CB_1142
REMARK  653  A    between atoms: CB_1142  and  CG_1143
REMARK  654  A    between atoms: CG_1143  and  CD1_1144
REMARK  655  A    between atoms: CG_1143  and  CD2_1145
REMARK  656  A    between atoms: N_1146  and  CA_1147
REMARK  657  A    between atoms: CA_1147  and  C_1148
REMARK  658  A    between atoms: CA_1147  and  CB_1150
REMARK  659  A    between atoms: CB_1150  and  CG_1151
REMARK  660  A    between atoms: CG_1151  and  CD2_1152
REMARK  661  A    between atoms: CG_1151  and  CD1_1153
REMARK  662  A    between atoms: N_1154  and  CA_1155
REMARK  663  A    between atoms: CA_1155  and  C_1156
REMARK  664  A    between atoms: N_1158  and  CA_1159
REMARK  665  A    between atoms: CA_1159  and  C_1160
REMARK  666  A    between atoms: CA_1159  and  CB_1162
REMARK  667  A    between atoms: CB_1162  and  OG_1163
REMARK  668  A    between atoms: N_1164  and  CA_1165
REMARK  669  A    between atoms: CA_1165  and  C_1166
REMARK  670  A    between atoms: CA_1165  and  CB_1168
REMARK  671  A    between atoms: N_1169  and  CA_1170
REMARK  672  A    between atoms: CA_1170  and  C_1171
REMARK  673  A    between atoms: N_1173  and  CA_1174
REMARK  674  A    between atoms: CA_1174  and  C_1175
REMARK  675  A    between atoms: CA_1174  and  CB_1177
REMARK  676  A    between atoms: CB_1177  and  CG_1178
REMARK  677  A    between atoms: CG_1178  and  CD_1179
REMARK  678  A    between atoms: N_1182  and  CA_1183
REMARK  679  A    between atoms: CA_1183  and  C_1184
REMARK  680  A    between atoms: CA_1183  and  CB_1186
REMARK  681  A    between atoms: CB_1186  and  CG_1187
REMARK  682  A    between atoms: CG_1187  and  CD2_1188
REMARK  683  A    between atoms: CG_1187  and  CD1_1189
REMARK  684  A    between atoms: N_1190  and  CA_1191
REMARK  685  A    between atoms: CA_1191  and  C_1192
REMARK  686  A    between atoms: CA_1191  and  CB_1194
REMARK  687  A    between atoms: CB_1194  and  CG_1195
REMARK  688  A    between atoms: CG_1195  and  CD_1196
REMARK  689  A    between atoms: CD_1196  and  CE_1197
REMARK  690  A    between atoms: CE_1197  and  NZ_1198
REMARK  691  A    between atoms: N_1199  and  CA_1200
REMARK  692  A    between atoms: CA_1200  and  C_1201
REMARK  693  A    between atoms: CA_1200  and  CB_1203
REMARK  694  A    between atoms: CB_1203  and  CG1_1204
REMARK  695  A    between atoms: CB_1203  and  CG2_1205
REMARK  696  A    between atoms: CG1_1204  and  CD1_1206
REMARK  697  A    between atoms: N_1207  and  CA_1208
REMARK  698  A    between atoms: CA_1208  and  C_1209
REMARK  699  A    between atoms: CA_1208  and  CB_1211
REMARK  700  A    between atoms: N_1212  and  CA_1213
REMARK  701  A    between atoms: CA_1213  and  C_1214
REMARK  702  A    between atoms: CA_1213  and  CB_1216
REMARK  703  A    between atoms: CB_1216  and  CG_1217
REMARK  704  A    between atoms: N_1220  and  CA_1221
REMARK  705  A    between atoms: CA_1221  and  C_1222
REMARK  706  A    between atoms: CA_1221  and  CB_1224
REMARK  707  A    between atoms: CB_1224  and  CG_1225
REMARK  708  A    between atoms: N_1231  and  CA_1232
REMARK  709  A    between atoms: CA_1232  and  C_1233
REMARK  710  A    between atoms: N_1235  and  CA_1236
REMARK  711  A    between atoms: CA_1236  and  C_1237
REMARK  712  A    between atoms: CA_1236  and  CB_1239
REMARK  713  A    between atoms: CB_1239  and  CG_1240
REMARK  714  A    between atoms: N_1249  and  CA_1250
REMARK  715  A    between atoms: CA_1250  and  C_1251
REMARK  716  A    between atoms: CA_1250  and  CB_1253
REMARK  717  A    between atoms: CB_1253  and  OG_1254
REMARK  718  A    between atoms: N_1255  and  CA_1256
REMARK  719  A    between atoms: CA_1256  and  C_1257
REMARK  720  A    between atoms: CA_1256  and  CB_1259
REMARK  721  A    between atoms: CB_1259  and  CG2_1260
REMARK  722  A    between atoms: CB_1259  and  CG1_1261
REMARK  723  A    between atoms: N_1262  and  CA_1263
REMARK  724  A    between atoms: CA_1263  and  C_1264
REMARK  725  A    between atoms: CA_1263  and  CB_1266
REMARK  726  A    between atoms: CB_1266  and  CG_1267
REMARK  727  A    between atoms: N_1272  and  CA_1273
REMARK  728  A    between atoms: CA_1273  and  C_1274
REMARK  729  A    between atoms: CA_1273  and  CB_1276
REMARK  730  A    between atoms: CA_1278  and  C_1279
REMARK  731  A    between atoms: N_1284  and  CA_1285
REMARK  732  A    between atoms: CA_1285  and  C_1286
REMARK  733  A    between atoms: CA_1285  and  CB_1288
REMARK  734  A    between atoms: CB_1288  and  OG_1289
REMARK  735  A    between atoms: N_1290  and  CA_1291
REMARK  736  A    between atoms: CA_1291  and  C_1292
REMARK  737  A    between atoms: CA_1291  and  CB_1294
REMARK  738  A    between atoms: CB_1294  and  OG_1295
REMARK  739  A    between atoms: N_1296  and  C_1297
REMARK  740  A    between atoms: C_1297  and  C_1298
REMARK  741  A    between atoms: C_1297  and  C_1300
REMARK  742  A    between atoms: C_1300  and  C_1301
REMARK  743  A    between atoms: C_1301  and  C_1302
REMARK  744  A    between atoms: N_1303  and  CA_1304
REMARK  745  A    between atoms: CA_1304  and  C_1305
REMARK  746  A    between atoms: CA_1304  and  CB_1307
REMARK  747  A    between atoms: CB_1307  and  CG_1308
REMARK  748  A    between atoms: CG_1308  and  CD_1309
REMARK  749  A    between atoms: CD_1309  and  NE_1310
REMARK  750  A    between atoms: N_1314  and  CA_1315
REMARK  751  A    between atoms: CA_1315  and  C_1316
REMARK  752  A    between atoms: CA_1315  and  CB_1318
REMARK  753  A    between atoms: CB_1318  and  OG1_1319
REMARK  754  A    between atoms: CB_1318  and  CG2_1320
REMARK  755  A    between atoms: N_1321  and  C_1322
REMARK  756  A    between atoms: C_1322  and  C_1323
REMARK  757  A    between atoms: C_1322  and  C_1325
REMARK  758  A    between atoms: C_1325  and  C_1326
REMARK  759  A    between atoms: C_1326  and  C_1327
REMARK  760  A    between atoms: C_1326  and  C_1328
REMARK  761  A    between atoms: N_1329  and  C_1330
REMARK  762  A    between atoms: C_1330  and  C_1331
REMARK  763  A    between atoms: C_1330  and  C_1333
REMARK  764  A    between atoms: N_1334  and  C_1335
REMARK  765  A    between atoms: C_1335  and  C_1336
REMARK  766  A    between atoms: N_1338  and  C_1339
REMARK  767  A    between atoms: C_1339  and  C_1340
REMARK  768  A    between atoms: C_1339  and  C_1342
REMARK  769  A    between atoms: C_1342  and  O_1343
REMARK  770  A    between atoms: C_1342  and  C_1344
REMARK  771  A    between atoms: N_1345  and  C_1346
REMARK  772  A    between atoms: C_1346  and  C_1347
REMARK  773  A    between atoms: C_1346  and  C_1349
REMARK  774  A    between atoms: C_1349  and  C_1350
REMARK  775  A    between atoms: C_1350  and  C_1351
REMARK  776  A    between atoms: C_1350  and  C_1352
REMARK  777  A    between atoms: N_1353  and  C_1354
REMARK  778  A    between atoms: C_1354  and  C_1355
REMARK  779  A    between atoms: C_1354  and  C_1357
REMARK  780  A    between atoms: C_1357  and  C_1358
REMARK  781  A    between atoms: N_1361  and  C_1362
REMARK  782  A    between atoms: C_1362  and  C_1363
REMARK  783  A    between atoms: C_1362  and  C_1365
REMARK  784  A    between atoms: C_1365  and  C_1366
REMARK  785  A    between atoms: C_1371  and  O_1372
REMARK  786  A    between atoms: N_1373  and  C_1374
REMARK  787  A    between atoms: C_1374  and  C_1375
REMARK  788  A    between atoms: C_1374  and  C_1377
REMARK  789  A    between atoms: C_1377  and  C_1378
REMARK  790  A    between atoms: C_1378  and  C_1379
REMARK  791  A    between atoms: C_1378  and  C_1380
REMARK  792  A    between atoms: C_1382  and  C_1383
REMARK  793  A    between atoms: C_1389  and  C_1390
REMARK  794  A    between atoms: N_1395  and  C_1396
REMARK  795  A    between atoms: C_1396  and  C_1399
REMARK  796  A    between atoms: C_1399  and  C_1400
REMARK  797  A    between atoms: C_1400  and  C_1401
REMARK  798  A    between atoms: N_1405  and  C_1406
REMARK  799  A    between atoms: C_1407  and  C_1412
REMARK  800  A    between atoms: C_1408  and  O_1410
REMARK  801  A    between atoms: C_1409  and  O_1411
REMARK  802  A    between atoms: O_1410  and  O_1411
REMARK  803  A    between atoms: C_1412  and  C_1414
REMARK  804  A    between atoms: C_1413  and  C_1415
REMARK  805  A    between atoms: S_1416  and  C_1418
REMARK  806  A    between atoms: S_1417  and  C_1419
REMARK  807  A    between atoms: C_1418  and  C_1419
REMARK  808  A    between atoms: N_1420  and  CA_1421
REMARK  809  A    between atoms: CA_1421  and  C_1422
REMARK  810  A    between atoms: CA_1421  and  CB_1424
REMARK  811  A    between atoms: CB_1424  and  CG1_1425
REMARK  812  A    between atoms: CB_1424  and  CG2_1426
REMARK  813  A    between atoms: CG1_1425  and  CD1_1427
REMARK  814  A    between atoms: N_1428  and  CA_1429
REMARK  815  A    between atoms: CA_1429  and  C_1430
REMARK  816  A    between atoms: CA_1429  and  CB_1432
REMARK  817  A    between atoms: CB_1432  and  CG_1433
REMARK  818  A    between atoms: CG_1433  and  CD_1434
REMARK  819  A    between atoms: N_1437  and  CA_1438
REMARK  820  A    between atoms: CA_1438  and  C_1439
REMARK  821  A    between atoms: N_1441  and  CA_1442
REMARK  822  A    between atoms: CA_1442  and  C_1443
REMARK  823  A    between atoms: CA_1442  and  CB_1445
REMARK  824  A    between atoms: CB_1445  and  CG_1446
REMARK  825  A    between atoms: CG_1446  and  CD_1447
REMARK  826  A    between atoms: CD_1447  and  NE_1448
REMARK  827  A    between atoms: N_1452  and  C_1453
REMARK  828  A    between atoms: C_1453  and  C_1454
REMARK  829  A    between atoms: C_1453  and  C_1456
REMARK  830  A    between atoms: C_1456  and  C_1457
REMARK  831  A    between atoms: C_1457  and  S_1458
REMARK  832  A    between atoms: N_1459  and  CA_1460
REMARK  833  A    between atoms: CA_1460  and  C_1461
REMARK  834  A    between atoms: CA_1460  and  CB_1463
REMARK  835  A    between atoms: CB_1463  and  CG_1464
REMARK  836  A    between atoms: N_1469  and  CA_1470
REMARK  837  A    between atoms: CA_1470  and  C_1471
REMARK  838  A    between atoms: CA_1470  and  CB_1473
REMARK  839  A    between atoms: CB_1473  and  CG_1474
REMARK  840  A    between atoms: N_1477  and  CA_1478
REMARK  841  A    between atoms: CA_1478  and  C_1479
REMARK  842  A    between atoms: CA_1478  and  CB_1481
REMARK  843  A    between atoms: CB_1481  and  CG_1482
REMARK  844  A    between atoms: CG_1482  and  CD_1483
REMARK  845  A    between atoms: N_1486  and  CA_1487
REMARK  846  A    between atoms: CA_1487  and  C_1488
REMARK  847  A    between atoms: CA_1487  and  CB_1490
REMARK  848  A    between atoms: CB_1490  and  CG_1491
REMARK  849  A    between atoms: CG_1491  and  CD_1492
REMARK  850  A    between atoms: CD_1492  and  CE_1493
REMARK  851  A    between atoms: CE_1493  and  NZ_1494
REMARK  852  A    between atoms: N_1495  and  CA_1496
REMARK  853  A    between atoms: CA_1496  and  C_1497
REMARK  854  A    between atoms: CA_1496  and  CB_1499
REMARK  855  A    between atoms: CB_1499  and  CG2_1500
REMARK  856  A    between atoms: CB_1499  and  CG1_1501
REMARK  857  A    between atoms: N_1502  and  CA_1503
REMARK  858  A    between atoms: CA_1503  and  C_1504
REMARK  859  A    between atoms: CA_1503  and  CB_1506
REMARK  860  A    between atoms: CB_1506  and  CG_1507
REMARK  861  A    between atoms: N_1510  and  CA_1511
REMARK  862  A    between atoms: CA_1511  and  C_1512
REMARK  863  A    between atoms: CA_1511  and  CB_1514
REMARK  864  A    between atoms: CB_1514  and  CG_1515
REMARK  865  A    between atoms: CG_1515  and  CD2_1516
REMARK  866  A    between atoms: CG_1515  and  CD1_1517
REMARK  867  A    between atoms: N_1518  and  CA_1519
REMARK  868  A    between atoms: CA_1519  and  C_1520
REMARK  869  A    between atoms: CA_1519  and  CB_1522
REMARK  870  A    between atoms: CB_1522  and  CG_1523
REMARK  871  A    between atoms: N_1532  and  CA_1533
REMARK  872  A    between atoms: CA_1533  and  C_1534
REMARK  873  A    between atoms: CA_1533  and  CB_1536
REMARK  874  A    between atoms: CB_1536  and  OG_1537
REMARK  875  A    between atoms: N_1538  and  CA_1539
REMARK  876  A    between atoms: CA_1539  and  C_1540
REMARK  877  A    between atoms: CA_1539  and  CB_1542
REMARK  878  A    between atoms: CB_1542  and  CG_1543
REMARK  879  A    between atoms: CG_1543  and  CD2_1544
REMARK  880  A    between atoms: CG_1543  and  CD1_1545
REMARK  881  A    between atoms: N_1546  and  CA_1547
REMARK  882  A    between atoms: CA_1547  and  C_1548
REMARK  883  A    between atoms: N_1550  and  CA_1551
REMARK  884  A    between atoms: CA_1551  and  C_1552
REMARK  885  A    between atoms: CA_1551  and  CB_1554
REMARK  886  A    between atoms: CB_1554  and  CG2_1555
REMARK  887  A    between atoms: CB_1554  and  CG1_1556
REMARK  888  A    between atoms: N_1557  and  CA_1558
REMARK  889  A    between atoms: CA_1558  and  C_1559
REMARK  890  A    between atoms: CA_1558  and  CB_1561
REMARK  891  A    between atoms: CB_1561  and  CG_1562
REMARK  892  A    between atoms: CG_1562  and  CD1_1563
REMARK  893  A    between atoms: CG_1562  and  CD2_1564
REMARK  894  A    between atoms: N_1565  and  CA_1566
REMARK  895  A    between atoms: CA_1566  and  C_1567
REMARK  896  A    between atoms: CA_1566  and  CB_1569
REMARK  897  A    between atoms: CB_1569  and  SG_1570
REMARK  898  A    between atoms: N_1571  and  CA_1572
REMARK  899  A    between atoms: CA_1572  and  C_1573
REMARK  900  A    between atoms: CA_1572  and  CB_1575
REMARK  901  A    between atoms: CB_1575  and  CG_1576
REMARK  902  A    between atoms: CZ_1581  and  OH_1582
REMARK  903  A    between atoms: N_1583  and  CA_1584
REMARK  904  A    between atoms: CA_1584  and  C_1585
REMARK  905  A    between atoms: CA_1584  and  CB_1587
REMARK  906  A    between atoms: CB_1587  and  CG_1588
REMARK  907  A    between atoms: CG_1588  and  CD_1589
REMARK  908  A    between atoms: N_1592  and  CA_1593
REMARK  909  A    between atoms: CA_1593  and  C_1594
REMARK  910  A    between atoms: CA_1593  and  CB_1596
REMARK  911  A    between atoms: CB_1596  and  CG_1597
REMARK  912  A    between atoms: N_1603  and  CA_1604
REMARK  913  A    between atoms: CA_1604  and  C_1605
REMARK  914  A    between atoms: CA_1604  and  CB_1607
REMARK  915  A    between atoms: CB_1607  and  CG_1608
REMARK  916  A    between atoms: CG_1608  and  CD1_1609
REMARK  917  A    between atoms: CG_1608  and  CD2_1610
REMARK  918  A    between atoms: N_1611  and  CA_1612
REMARK  919  A    between atoms: CA_1612  and  C_1613
REMARK  920  A    between atoms: CA_1612  and  CB_1615
REMARK  921  A    between atoms: CB_1615  and  CG2_1616
REMARK  922  A    between atoms: CB_1615  and  CG1_1617
REMARK  923  A    between atoms: N_1618  and  CA_1619
REMARK  924  A    between atoms: CA_1619  and  C_1620
REMARK  925  A    between atoms: N_1622  and  C_1623
REMARK  926  A    between atoms: C_1623  and  C_1624
REMARK  927  A    between atoms: C_1623  and  C_1626
REMARK  928  A    between atoms: C_1626  and  C_1627
REMARK  929  A    between atoms: C_1627  and  C_1628
REMARK  930  A    between atoms: CA_1630  and  C_1631
REMARK  931  A    between atoms: CA_1637  and  C_1638
REMARK  932  A    between atoms: N_1643  and  CA_1644
REMARK  933  A    between atoms: CA_1644  and  C_1645
REMARK  934  A    between atoms: CA_1644  and  CB_1647
REMARK  935  A    between atoms: CB_1647  and  CG_1648
REMARK  936  A    between atoms: N_1654  and  CA_1655
REMARK  937  A    between atoms: CA_1655  and  C_1656
REMARK  938  A    between atoms: CA_1655  and  CB_1658
REMARK  939  A    between atoms: CB_1658  and  CG_1659
REMARK  940  A    between atoms: CG_1659  and  CD_1660
REMARK  941  A    between atoms: N_1663  and  CA_1664
REMARK  942  A    between atoms: CA_1664  and  C_1665
REMARK  943  A    between atoms: CA_1664  and  CB_1667
REMARK  944  A    between atoms: N_1668  and  CA_1669
REMARK  945  A    between atoms: CA_1669  and  C_1670
REMARK  946  A    between atoms: CA_1669  and  CB_1672
REMARK  947  A    between atoms: CB_1672  and  CG_1673
REMARK  948  A    between atoms: N_1676  and  CA_1677
REMARK  949  A    between atoms: CA_1677  and  C_1678
REMARK  950  A    between atoms: CA_1677  and  CB_1680
REMARK  951  A    between atoms: CB_1680  and  OG1_1681
REMARK  952  A    between atoms: CB_1680  and  CG2_1682
REMARK  953  A    between atoms: N_1683  and  CA_1684
REMARK  954  A    between atoms: CA_1684  and  C_1685
REMARK  955  A    between atoms: CA_1684  and  CB_1687
REMARK  956  A    between atoms: CB_1687  and  CG_1688
REMARK  957  A    between atoms: CZ_1693  and  OH_1694
REMARK  958  A    between atoms: N_1695  and  CA_1696
REMARK  959  A    between atoms: CA_1696  and  C_1697
REMARK  960  A    between atoms: CA_1696  and  CB_1699
REMARK  961  A    between atoms: CB_1699  and  CG_1700
REMARK  962  A    between atoms: CG_1700  and  CD_1701
REMARK  963  A    between atoms: N_1704  and  CA_1705
REMARK  964  A    between atoms: CA_1705  and  C_1706
REMARK  965  A    between atoms: CA_1705  and  CB_1708
REMARK  966  A    between atoms: CB_1708  and  CG_1709
REMARK  967  A    between atoms: CG_1709  and  CD_1710
REMARK  968  A    between atoms: N_1713  and  CA_1714
REMARK  969  A    between atoms: CA_1714  and  C_1715
REMARK  970  A    between atoms: CA_1714  and  CB_1717
REMARK  971  A    between atoms: CB_1717  and  OG1_1718
REMARK  972  A    between atoms: CB_1717  and  CG2_1719
REMARK  973  A    between atoms: N_1720  and  CA_1721
REMARK  974  A    between atoms: CA_1721  and  C_1722
REMARK  975  A    between atoms: CA_1721  and  CB_1724
REMARK  976  A    between atoms: CB_1724  and  CG_1725
REMARK  977  A    between atoms: CZ_1730  and  OH_1731
REMARK  978  A    between atoms: N_1732  and  CA_1733
REMARK  979  A    between atoms: CA_1733  and  C_1734
REMARK  980  A    between atoms: CA_1733  and  CB_1736
REMARK  981  A    between atoms: CB_1736  and  SG_1737
REMARK  982  A    between atoms: N_1738  and  C_1739
REMARK  983  A    between atoms: C_1739  and  C_1740
REMARK  984  A    between atoms: C_1739  and  C_1742
REMARK  985  A    between atoms: C_1742  and  C_1743
REMARK  986  A    between atoms: C_1743  and  C_1744
REMARK  987  A    between atoms: C_1744  and  N_1745
REMARK  988  A    between atoms: N_1746  and  CA_1747
REMARK  989  A    between atoms: CA_1747  and  C_1748
REMARK  990  A    between atoms: CA_1747  and  CB_1750
REMARK  991  A    between atoms: CB_1750  and  CG1_1751
REMARK  992  A    between atoms: CB_1750  and  CG2_1752
REMARK  993  A    between atoms: CG1_1751  and  CD1_1753
REMARK  994  A    between atoms: N_1754  and  C_1755
REMARK  995  A    between atoms: C_1755  and  C_1756
REMARK  996  A    between atoms: C_1755  and  C_1758
REMARK  997  A    between atoms: C_1758  and  O_1759
REMARK  998  A    between atoms: N_1760  and  C_1761
REMARK  999  A    between atoms: C_1761  and  C_1762
REMARK  1000  A    between atoms: C_1761  and  C_1764
REMARK  1001  A    between atoms: C_1764  and  C_1765
REMARK  1002  A    between atoms: C_1765  and  C_1766
REMARK  1003  A    between atoms: C_1766  and  N_1767
REMARK  1004  A    between atoms: N_1771  and  C_1772
REMARK  1005  A    between atoms: C_1772  and  C_1773
REMARK  1006  A    between atoms: C_1772  and  C_1775
REMARK  1007  A    between atoms: C_1775  and  C_1776
REMARK  1008  A    between atoms: C_1775  and  C_1777
REMARK  1009  A    between atoms: N_1778  and  C_1779
REMARK  1010  A    between atoms: C_1779  and  C_1780
REMARK  1011  A    between atoms: C_1779  and  C_1782
REMARK  1012  A    between atoms: C_1782  and  C_1783
REMARK  1013  A    between atoms: C_1783  and  C_1784
REMARK  1014  A    between atoms: N_1787  and  C_1788
REMARK  1015  A    between atoms: C_1788  and  C_1789
REMARK  1016  A    between atoms: C_1788  and  C_1791
REMARK  1017  A    between atoms: C_1791  and  C_1792
REMARK  1018  A    between atoms: N_1798  and  C_1799
REMARK  1019  A    between atoms: C_1799  and  C_1800
REMARK  1020  A    between atoms: C_1799  and  C_1802
REMARK  1021  A    between atoms: C_1802  and  O_1803
REMARK  1022  A    between atoms: C_1802  and  C_1804
REMARK  1023  A    between atoms: N_1805  and  C_1806
REMARK  1024  A    between atoms: C_1806  and  C_1807
REMARK  1025  A    between atoms: C_1806  and  C_1809
REMARK  1026  A    between atoms: C_1809  and  C_1810
REMARK  1027  A    between atoms: C_1817  and  C_1818
REMARK  1028  A    between atoms: N_1823  and  C_1824
REMARK  1029  A    between atoms: C_1824  and  C_1825
REMARK  1030  A    between atoms: C_1824  and  C_1827
REMARK  1031  A    between atoms: C_1827  and  C_1828
REMARK  1032  A    between atoms: N_1831  and  C_1832
REMARK  1033  A    between atoms: C_1832  and  C_1833
REMARK  1034  A    between atoms: C_1832  and  C_1835
REMARK  1035  A    between atoms: C_1835  and  C_1836
REMARK  1036  A    between atoms: N_1842  and  C_1843
REMARK  1037  A    between atoms: C_1843  and  C_1844
REMARK  1038  A    between atoms: C_1843  and  C_1846
REMARK  1039  A    between atoms: C_1846  and  C_1847
REMARK  1040  A    between atoms: C_1846  and  C_1848
REMARK  1041  A    between atoms: N_1849  and  C_1850
REMARK  1042  A    between atoms: C_1850  and  C_1851
REMARK  1043  A    between atoms: C_1850  and  C_1853
REMARK  1044  A    between atoms: C_1853  and  O_1854
REMARK  1045  A    between atoms: C_1853  and  C_1855
REMARK  1046  A    between atoms: N_1856  and  C_1857
REMARK  1047  A    between atoms: C_1858  and  C_1859
REMARK  1048  A    between atoms: C_1858  and  C_1861
REMARK  1049  A    between atoms: C_1862  and  C_1863
REMARK  1050  A    between atoms: C_1862  and  C_1864
REMARK  1051  A    between atoms: C_1863  and  C_1865
REMARK  1052  A    between atoms: N_1871  and  C_1872
REMARK  1053  A    between atoms: C_1872  and  C_1873
REMARK  1054  A    between atoms: N_1875  and  CA_1876
REMARK  1055  A    between atoms: CA_1876  and  C_1877
REMARK  1056  A    between atoms: CA_1876  and  CB_1879
REMARK  1057  A    between atoms: N_1880  and  CA_1881
REMARK  1058  A    between atoms: CA_1881  and  C_1882
REMARK  1059  A    between atoms: CA_1881  and  CB_1884
REMARK  1060  A    between atoms: CB_1884  and  CG_1885
REMARK  1061  A    between atoms: CG_1885  and  CD_1886
REMARK  1062  A    between atoms: CD_1886  and  NE_1887
REMARK  1063  A    between atoms: N_1891  and  CA_1892
REMARK  1064  A    between atoms: CA_1892  and  C_1893
REMARK  1065  A    between atoms: CA_1892  and  CB_1895
REMARK  1066  A    between atoms: CB_1895  and  CG_1896
REMARK  1067  A    between atoms: N_1899  and  CA_1900
REMARK  1068  A    between atoms: CA_1900  and  C_1901
REMARK  1069  A    between atoms: CA_1900  and  CB_1903
REMARK  1070  A    between atoms: CB_1903  and  CG_1904
REMARK  1071  A    between atoms: CG_1904  and  CD1_1905
REMARK  1072  A    between atoms: CG_1904  and  CD2_1906
REMARK  1073  A    between atoms: N_1907  and  CA_1908
REMARK  1074  A    between atoms: CA_1908  and  C_1909
REMARK  1075  A    between atoms: CA_1908  and  CB_1911
REMARK  1076  A    between atoms: CB_1911  and  CG1_1912
REMARK  1077  A    between atoms: CB_1911  and  CG2_1913
REMARK  1078  A    between atoms: CG1_1912  and  CD1_1914
REMARK  1079  A    between atoms: N_1915  and  CA_1916
REMARK  1080  A    between atoms: CA_1916  and  C_1917
REMARK  1081  A    between atoms: CA_1916  and  CB_1919
REMARK  1082  A    between atoms: CB_1919  and  OG_1920
REMARK  1083  A    between atoms: N_1921  and  CA_1922
REMARK  1084  A    between atoms: CA_1922  and  C_1923
REMARK  1085  A    between atoms: CA_1922  and  CB_1925
REMARK  1086  A    between atoms: CB_1925  and  CG_1926
REMARK  1087  A    between atoms: CG_1926  and  CD_1927
REMARK  1088  A    between atoms: CD_1927  and  NE_1928
REMARK  1089  A    between atoms: N_1932  and  CA_1933
REMARK  1090  A    between atoms: CA_1933  and  C_1934
REMARK  1091  A    between atoms: CA_1933  and  CB_1936
REMARK  1092  A    between atoms: CB_1936  and  CG_1937
REMARK  1093  A    between atoms: CG_1937  and  CD2_1938
REMARK  1094  A    between atoms: CG_1937  and  CD1_1939
REMARK  1095  A    between atoms: N_1940  and  CA_1941
REMARK  1096  A    between atoms: CA_1941  and  C_1942
REMARK  1097  A    between atoms: CA_1941  and  CB_1944
REMARK  1098  A    between atoms: CB_1944  and  CG_1945
REMARK  1099  A    between atoms: CG_1945  and  CD2_1946
REMARK  1100  A    between atoms: CG_1945  and  CD1_1947
REMARK  1101  A    between atoms: N_1948  and  CA_1949
REMARK  1102  A    between atoms: CA_1949  and  C_1950
REMARK  1103  A    between atoms: CA_1949  and  CB_1952
REMARK  1104  A    between atoms: CB_1952  and  CG_1953
REMARK  1105  A    between atoms: CG_1953  and  CD_1954
REMARK  1106  A    between atoms: CD_1954  and  CE_1955
REMARK  1107  A    between atoms: CE_1955  and  NZ_1956
REMARK  1108  A    between atoms: N_1957  and  CA_1958
REMARK  1109  A    between atoms: CA_1958  and  C_1959
REMARK  1110  A    between atoms: CA_1958  and  CB_1961
REMARK  1111  A    between atoms: CB_1961  and  CG_1962
REMARK  1112  A    between atoms: N_1967  and  CA_1968
REMARK  1113  A    between atoms: CA_1968  and  C_1969
REMARK  1114  A    between atoms: CA_1968  and  CB_1971
REMARK  1115  A    between atoms: CB_1971  and  CG_1972
REMARK  1116  A    between atoms: CA_1976  and  C_1977
REMARK  1117  A    between atoms: N_1982  and  C_1983
REMARK  1118  A    between atoms: C_1983  and  C_1984
REMARK  1119  A    between atoms: C_1983  and  C_1986
REMARK  1120  A    between atoms: C_1986  and  O_1987
REMARK  1121  A    between atoms: N_1988  and  C_1989
REMARK  1122  A    between atoms: C_1989  and  C_1990
REMARK  1123  A    between atoms: C_1989  and  C_1992
REMARK  1124  A    between atoms: C_1992  and  C_1993
REMARK  1125  A    between atoms: C_1993  and  C_1994
REMARK  1126  A    between atoms: N_1997  and  C_1998
REMARK  1127  A    between atoms: C_1998  and  C_1999
REMARK  1128  A    between atoms: C_1998  and  C_2001
REMARK  1129  A    between atoms: C_2001  and  C_2002
REMARK  1130  A    between atoms: C_2002  and  C_2003
REMARK  1131  A    between atoms: C_2003  and  N_2004
REMARK  1132  A    between atoms: C_2009  and  C_2010
REMARK  1133  A    between atoms: N_2015  and  C_2017
REMARK  1134  A    between atoms: C_2016  and  C_2018
REMARK  1135  A    between atoms: C_2016  and  C_2021
REMARK  1136  A    between atoms: C_2021  and  C_2022
REMARK  1137  A    between atoms: C_2022  and  C_2023
REMARK  1138  A    between atoms: C_2023  and  S_2024
REMARK  1139  A    between atoms: C_2023  and  S_2025
REMARK  1140  A    between atoms: S_2024  and  C_2026
REMARK  1141  A    between atoms: S_2025  and  C_2027
REMARK  1142  A    between atoms: N_2028  and  CA_2029
REMARK  1143  A    between atoms: CA_2029  and  C_2030
REMARK  1144  A    between atoms: CA_2029  and  CB_2032
REMARK  1145  A    between atoms: CB_2032  and  CG_2033
REMARK  1146  A    between atoms: CG_2033  and  CD1_2034
REMARK  1147  A    between atoms: CG_2033  and  CD2_2035
REMARK  1148  A    between atoms: N_2036  and  CA_2037
REMARK  1149  A    between atoms: CA_2037  and  C_2038
REMARK  1150  A    between atoms: CA_2037  and  CB_2040
REMARK  1151  A    between atoms: N_2041  and  CA_2042
REMARK  1152  A    between atoms: CA_2042  and  C_2043
REMARK  1153  A    between atoms: CA_2042  and  CB_2045
REMARK  1154  A    between atoms: CB_2045  and  CG_2046
REMARK  1155  A    between atoms: CG_2046  and  CD_2047
REMARK  1156  A    between atoms: N_2050  and  CA_2051
REMARK  1157  A    between atoms: CA_2051  and  C_2052
REMARK  1158  A    between atoms: CA_2051  and  CB_2054
REMARK  1159  A    between atoms: CB_2054  and  CG2_2055
REMARK  1160  A    between atoms: CB_2054  and  CG1_2056
REMARK  1161  A    between atoms: N_2057  and  CA_2058
REMARK  1162  A    between atoms: CA_2058  and  C_2059
REMARK  1163  A    between atoms: CA_2058  and  CB_2061
REMARK  1164  A    between atoms: CB_2061  and  CG_2062
REMARK  1165  A    between atoms: CG_2062  and  CD1_2063
REMARK  1166  A    between atoms: CG_2062  and  CD2_2064
REMARK  1167  A    between atoms: N_2065  and  CA_2066
REMARK  1168  A    between atoms: CA_2066  and  C_2067
REMARK  1169  A    between atoms: CA_2066  and  CB_2069
REMARK  1170  A    between atoms: CB_2069  and  CG_2070
REMARK  1171  A    between atoms: CG_2070  and  CD_2071
REMARK  1172  A    between atoms: N_2074  and  CA_2075
REMARK  1173  A    between atoms: CA_2075  and  C_2076
REMARK  1174  A    between atoms: CA_2075  and  CB_2078
REMARK  1175  A    between atoms: CB_2078  and  CG_2079
REMARK  1176  A    between atoms: CA_2085  and  C_2086
REMARK  1177  A    between atoms: N_2091  and  CA_2092
REMARK  1178  A    between atoms: CA_2092  and  C_2093
REMARK  1179  A    between atoms: CA_2092  and  CB_2095
REMARK  1180  A    between atoms: CB_2095  and  CG_2096
REMARK  1181  A    between atoms: N_2105  and  CA_2106
REMARK  1182  A    between atoms: CA_2106  and  C_2107
REMARK  1183  A    between atoms: CA_2106  and  CB_2109
REMARK  1184  A    between atoms: CB_2109  and  CG1_2110
REMARK  1185  A    between atoms: CB_2109  and  CG2_2111
REMARK  1186  A    between atoms: CG1_2110  and  CD1_2112
REMARK  1187  A    between atoms: N_2113  and  CA_2114
REMARK  1188  A    between atoms: CA_2114  and  C_2115
REMARK  1189  A    between atoms: CA_2114  and  CB_2117
REMARK  1190  A    between atoms: CB_2117  and  OG1_2118
REMARK  1191  A    between atoms: CB_2117  and  CG2_2119
REMARK  1192  A    between atoms: N_2120  and  CA_2121
REMARK  1193  A    between atoms: CA_2121  and  C_2122
REMARK  1194  A    between atoms: CA_2121  and  CB_2124
REMARK  1195  A    between atoms: N_2125  and  CA_2126
REMARK  1196  A    between atoms: CA_2126  and  C_2127
REMARK  1197  A    between atoms: CA_2126  and  CB_2129
REMARK  1198  A    between atoms: CB_2129  and  CG_2130
REMARK  1199  A    between atoms: N_2133  and  CA_2134
REMARK  1200  A    between atoms: CA_2134  and  C_2135
REMARK  1201  A    between atoms: CA_2134  and  CB_2137
REMARK  1202  A    between atoms: CB_2137  and  OG_2138
REMARK  1203  A    between atoms: N_2139  and  CA_2140
REMARK  1204  A    between atoms: CA_2140  and  C_2141
REMARK  1205  A    between atoms: CA_2140  and  CB_2143
REMARK  1206  A    between atoms: CB_2143  and  OG_2144
REMARK  1207  A    between atoms: N_2145  and  C_2146
REMARK  1208  A    between atoms: C_2146  and  C_2147
REMARK  1209  A    between atoms: C_2146  and  C_2149
REMARK  1210  A    between atoms: C_2149  and  C_2150
REMARK  1211  A    between atoms: N_2151  and  CA_2152
REMARK  1212  A    between atoms: CA_2152  and  C_2153
REMARK  1213  A    between atoms: CA_2152  and  CB_2155
REMARK  1214  A    between atoms: CB_2155  and  OG_2156
REMARK  1215  A    between atoms: N_2157  and  CA_2158
REMARK  1216  A    between atoms: CA_2158  and  C_2159
REMARK  1217  A    between atoms: CA_2158  and  CB_2161
REMARK  1218  A    between atoms: CB_2161  and  CG_2162
REMARK  1219  A    between atoms: CG_2162  and  CD_2163
REMARK  1220  A    between atoms: CA_2167  and  C_2168
REMARK  1221  A    between atoms: CA_2174  and  C_2175
REMARK  1222  A    between atoms: N_2180  and  CA_2181
REMARK  1223  A    between atoms: CA_2181  and  C_2182
REMARK  1224  A    between atoms: CA_2181  and  CB_2184
REMARK  1225  A    between atoms: CB_2184  and  OG_2185
REMARK  1226  A    between atoms: N_2186  and  CA_2187
REMARK  1227  A    between atoms: CA_2187  and  C_2188
REMARK  1228  A    between atoms: CA_2187  and  CB_2190
REMARK  1229  A    between atoms: CB_2190  and  CG_2191
REMARK  1230  A    between atoms: N_2200  and  CA_2201
REMARK  1231  A    between atoms: CA_2201  and  C_2202
REMARK  1232  A    between atoms: CA_2201  and  CB_2204
REMARK  1233  A    between atoms: CB_2204  and  CG2_2205
REMARK  1234  A    between atoms: CB_2204  and  CG1_2206
REMARK  1235  A    between atoms: N_2207  and  CA_2208
REMARK  1236  A    between atoms: CA_2208  and  C_2209
REMARK  1237  A    between atoms: CA_2208  and  CB_2211
REMARK  1238  A    between atoms: CB_2211  and  OG1_2212
REMARK  1239  A    between atoms: CB_2211  and  CG2_2213
REMARK  1240  A    between atoms: N_2214  and  CA_2215
REMARK  1241  A    between atoms: CA_2215  and  C_2216
REMARK  1242  A    between atoms: CA_2215  and  CB_2218
REMARK  1243  A    between atoms: CB_2218  and  CG_2219
REMARK  1244  A    between atoms: CG_2219  and  CD_2220
REMARK  1245  A    between atoms: N_2223  and  CA_2224
REMARK  1246  A    between atoms: CA_2224  and  C_2225
REMARK  1247  A    between atoms: CA_2224  and  CB_2227
REMARK  1248  A    between atoms: CB_2227  and  CG_2228
REMARK  1249  A    between atoms: CG_2228  and  SD_2229
REMARK  1250  A    between atoms: SD_2229  and  CE_2230
REMARK  1251  A    between atoms: N_2231  and  CA_2232
REMARK  1252  A    between atoms: CA_2232  and  C_2233
REMARK  1253  A    between atoms: CA_2232  and  CB_2235
REMARK  1254  A    between atoms: CB_2235  and  CG_2236
REMARK  1255  A    between atoms: CG_2236  and  CD1_2237
REMARK  1256  A    between atoms: CG_2236  and  CD2_2238
REMARK  1257  A    between atoms: N_2239  and  CA_2240
REMARK  1258  A    between atoms: CA_2240  and  C_2241
REMARK  1259  A    between atoms: CA_2240  and  CB_2243
REMARK  1260  A    between atoms: CB_2243  and  CG_2244
REMARK  1261  A    between atoms: CG_2244  and  CD1_2245
REMARK  1262  A    between atoms: CG_2244  and  CD2_2246
REMARK  1263  A    between atoms: N_2247  and  CA_2248
REMARK  1264  A    between atoms: CA_2248  and  C_2249
REMARK  1265  A    between atoms: CA_2248  and  CB_2251
REMARK  1266  A    between atoms: CB_2251  and  CG_2252
REMARK  1267  A    between atoms: CG_2252  and  CD_2253
REMARK  1268  A    between atoms: N_2256  and  CA_2257
REMARK  1269  A    between atoms: CA_2257  and  C_2258
REMARK  1270  A    between atoms: CA_2257  and  CB_2260
REMARK  1271  A    between atoms: CB_2260  and  CG_2261
REMARK  1272  A    between atoms: CG_2261  and  CD_2262
REMARK  1273  A    between atoms: CD_2262  and  CE_2263
REMARK  1274  A    between atoms: CE_2263  and  NZ_2264
REMARK  1275  A    between atoms: N_2265  and  C_2266
REMARK  1276  A    between atoms: C_2266  and  C_2267
REMARK  1277  A    between atoms: C_2266  and  C_2269
REMARK  1278  A    between atoms: C_2269  and  C_2270
REMARK  1279  A    between atoms: N_2271  and  CA_2272
REMARK  1280  A    between atoms: CA_2272  and  C_2273
REMARK  1281  A    between atoms: CA_2272  and  CB_2275
REMARK  1282  A    between atoms: CB_2275  and  CG_2276
REMARK  1283  A    between atoms: CG_2276  and  CD2_2277
REMARK  1284  A    between atoms: CG_2276  and  CD1_2278
REMARK  1285  A    between atoms: N_2279  and  CA_2280
REMARK  1286  A    between atoms: CA_2280  and  C_2281
REMARK  1287  A    between atoms: CA_2280  and  CB_2283
REMARK  1288  A    between atoms: CB_2283  and  CG_2284
REMARK  1289  A    between atoms: N_2293  and  CA_2294
REMARK  1290  A    between atoms: CA_2294  and  C_2295
REMARK                            x       y       z     vdW  Elec       q    Type
REMARK                         _______ _______ _______ _____ _____    ______ ____
ROOT
ATOM      1  C   UNL     9     -49.988  30.532   3.295  0.00  0.00    +0.076 C 
ENDROOT
BRANCH   1   2
ATOM      2  S   UNL     9     -50.937  29.346   4.253  0.00  0.00    -0.177 S 
ATOM      3  H   UNL     9     -51.991  28.906   3.514  0.00  0.00    +0.102 HD
ENDBRANCH   1   2
BRANCH   1   4
ATOM      4  C   UNL     9     -49.170  30.804   4.012  0.00  0.00    +0.076 C 
BRANCH   4   5
ATOM      5  S   UNL     9     -49.813  32.466   4.030  0.00  0.00    -0.177 S 
ATOM      6  H   UNL     9     -49.055  33.236   4.855  0.00  0.00    +0.102 HD
ENDBRANCH   4   5
ENDBRANCH   1   4
TORSDOF 3
REMARK  Name = /Users/wangyang/Desktop/Breast_cancer_brain_metastasis/wang_Gene/AIDD/15_Protein_ligand_docking/data_7ztl/protein.pdb
REMARK  1290 active torsions:
REMARK  status: ('A' for Active; 'I' for Inactive)
REMARK    1  A    between atoms: N_1  and  CA_2
REMARK    2  A    between atoms: CA_2  and  C_3
REMARK    3  A    between atoms: N_5  and  CA_6
REMARK    4  A    between atoms: CA_6  and  C_7
REMARK    5  A    between atoms: CA_6  and  CB_9
REMARK    6  A    between atoms: N_10  and  CA_11
REMARK    7  A    between atoms: CA_11  and  C_12
REMARK    8  A    between atoms: CA_11  and  CB_14
REMARK    9  A    between atoms: CB_14  and  CG_15
REMARK   10  A    between atoms: N_24  and  CA_25
REMARK   11  A    between atoms: CA_25  and  C_26
REMARK   12  A    between atoms: CA_25  and  CB_28
REMARK   13  A    between atoms: N_29  and  CA_30
REMARK   14  A    between atoms: CA_30  and  C_31
REMARK   15  A    between atoms: CA_30  and  CB_33
REMARK   16  A    between atoms: CB_33  and  CG_34
REMARK   17  A    between atoms: CG_34  and  CD1_35
REMARK   18  A    between atoms: CG_34  and  CD2_36
REMARK   19  A    between atoms: N_37  and  CA_38
REMARK   20  A    between atoms: CA_38  and  C_39
REMARK   21  A    between atoms: CA_38  and  CB_41
REMARK   22  A    between atoms: CB_41  and  CG_42
REMARK   23  A    between atoms: CG_42  and  CD_43
REMARK   24  A    between atoms: N_46  and  CA_47
REMARK   25  A    between atoms: CA_47  and  C_48
REMARK   26  A    between atoms: CA_47  and  CB_50
REMARK   27  A    between atoms: CB_50  and  CG_51
REMARK   28  A    between atoms: N_54  and  CA_55
REMARK   29  A    between atoms: CA_55  and  C_56
REMARK   30  A    between atoms: CA_55  and  CB_58
REMARK   31  A    between atoms: CB_58  and  CG_59
REMARK   32  A    between atoms: N_65  and  CA_66
REMARK   33  A    between atoms: CA_66  and  C_67
REMARK   34  A    between atoms: CA_66  and  CB_69
REMARK   35  A    between atoms: CB_69  and  CG_70
REMARK   36  A    between atoms: CG_70  and  CD_71
REMARK   37  A    between atoms: N_74  and  CA_75
REMARK   38  A    between atoms: CA_75  and  C_76
REMARK   39  A    between atoms: CA_75  and  CB_78
REMARK   40  A    between atoms: CB_78  and  CG1_79
REMARK   41  A    between atoms: CB_78  and  CG2_80
REMARK   42  A    between atoms: CG1_79  and  CD1_81
REMARK   43  A    between atoms: N_82  and  CA_83
REMARK   44  A    between atoms: CA_83  and  C_84
REMARK   45  A    between atoms: N_86  and  CA_87
REMARK   46  A    between atoms: CA_87  and  C_88
REMARK   47  A    between atoms: CA_87  and  CB_90
REMARK   48  A    between atoms: CB_90  and  CG_91
REMARK   49  A    between atoms: CG_91  and  CD_92
REMARK   50  A    between atoms: CD_92  and  NE_93
REMARK   51  A    between atoms: CA_98  and  C_99
REMARK   52  A    between atoms: N_104  and  CA_105
REMARK   53  A    between atoms: CA_105  and  C_106
REMARK   54  A    between atoms: CA_105  and  CB_108
REMARK   55  A    between atoms: CB_108  and  CG_109
REMARK   56  A    between atoms: CG_109  and  CD1_110
REMARK   57  A    between atoms: CG_109  and  CD2_111
REMARK   58  A    between atoms: N_112  and  CA_113
REMARK   59  A    between atoms: CA_113  and  C_114
REMARK   60  A    between atoms: N_116  and  C_117
REMARK   61  A    between atoms: C_117  and  C_118
REMARK   62  A    between atoms: C_117  and  C_120
REMARK   63  A    between atoms: C_120  and  C_121
REMARK   64  A    between atoms: C_121  and  C_122
REMARK   65  A    between atoms: N_123  and  CA_124
REMARK   66  A    between atoms: CA_124  and  C_125
REMARK   67  A    between atoms: N_127  and  CA_128
REMARK   68  A    between atoms: CA_128  and  C_129
REMARK   69  A    between atoms: CA_128  and  CB_131
REMARK   70  A    between atoms: CB_131  and  CG_132
REMARK   71  A    between atoms: CG_132  and  CD_133
REMARK   72  A    between atoms: CD_133  and  CE_134
REMARK   73  A    between atoms: CE_134  and  NZ_135
REMARK   74  A    between atoms: N_136  and  CA_137
REMARK   75  A    between atoms: CA_137  and  C_138
REMARK   76  A    between atoms: CA_137  and  CB_140
REMARK   77  A    between atoms: CB_140  and  CG_141
REMARK   78  A    between atoms: N_147  and  CA_148
REMARK   79  A    between atoms: CA_148  and  C_149
REMARK   80  A    between atoms: N_151  and  CA_152
REMARK   81  A    between atoms: CA_152  and  C_153
REMARK   82  A    between atoms: CA_152  and  CB_155
REMARK   83  A    between atoms: CB_155  and  CG_156
REMARK   84  A    between atoms: N_159  and  CA_160
REMARK   85  A    between atoms: CA_160  and  C_161
REMARK   86  A    between atoms: CA_160  and  CB_163
REMARK   87  A    between atoms: CB_163  and  CG1_164
REMARK   88  A    between atoms: CB_163  and  CG2_165
REMARK   89  A    between atoms: N_166  and  CA_167
REMARK   90  A    between atoms: CA_167  and  C_168
REMARK   91  A    between atoms: CA_167  and  CB_170
REMARK   92  A    between atoms: CB_170  and  CG_171
REMARK   93  A    between atoms: CZ_176  and  OH_177
REMARK   94  A    between atoms: N_178  and  CA_179
REMARK   95  A    between atoms: CA_179  and  C_180
REMARK   96  A    between atoms: CA_179  and  CB_182
REMARK   97  A    between atoms: CB_182  and  CG_183
REMARK   98  A    between atoms: CG_183  and  CD1_184
REMARK   99  A    between atoms: CG_183  and  CD2_185
REMARK  100  A    between atoms: N_186  and  CA_187
REMARK  101  A    between atoms: CA_187  and  C_188
REMARK  102  A    between atoms: CA_187  and  CB_190
REMARK  103  A    between atoms: N_191  and  CA_192
REMARK  104  A    between atoms: CA_192  and  C_193
REMARK  105  A    between atoms: CA_192  and  CB_195
REMARK  106  A    between atoms: CB_195  and  CG_196
REMARK  107  A    between atoms: CG_196  and  CD_197
REMARK  108  A    between atoms: CD_197  and  NE_198
REMARK  109  A    between atoms: N_202  and  CA_203
REMARK  110  A    between atoms: CA_203  and  C_204
REMARK  111  A    between atoms: CA_203  and  CB_206
REMARK  112  A    between atoms: CB_206  and  CG_207
REMARK  113  A    between atoms: CG_207  and  CD_208
REMARK  114  A    between atoms: N_211  and  CA_212
REMARK  115  A    between atoms: CA_212  and  C_213
REMARK  116  A    between atoms: CA_212  and  CB_215
REMARK  117  A    between atoms: CB_215  and  CG_216
REMARK  118  A    between atoms: CG_216  and  CD_217
REMARK  119  A    between atoms: CD_217  and  CE_218
REMARK  120  A    between atoms: CE_218  and  NZ_219
REMARK  121  A    between atoms: N_220  and  CA_221
REMARK  122  A    between atoms: CA_221  and  C_222
REMARK  123  A    between atoms: CA_221  and  CB_224
REMARK  124  A    between atoms: N_225  and  CA_226
REMARK  125  A    between atoms: CA_226  and  C_227
REMARK  126  A    between atoms: CA_226  and  CB_229
REMARK  127  A    between atoms: CB_229  and  OG_230
REMARK  128  A    between atoms: N_231  and  CA_232
REMARK  129  A    between atoms: CA_232  and  C_233
REMARK  130  A    between atoms: CA_232  and  CB_235
REMARK  131  A    between atoms: CB_235  and  CG_236
REMARK  132  A    between atoms: CG_236  and  CD_237
REMARK  133  A    between atoms: CD_237  and  CE_238
REMARK  134  A    between atoms: CE_238  and  NZ_239
REMARK  135  A    between atoms: N_240  and  CA_241
REMARK  136  A    between atoms: CA_241  and  C_242
REMARK  137  A    between atoms: CA_241  and  CB_244
REMARK  138  A    between atoms: CB_244  and  CG_245
REMARK  139  A    between atoms: N_251  and  CA_252
REMARK  140  A    between atoms: CA_252  and  C_253
REMARK  141  A    between atoms: CA_252  and  CB_255
REMARK  142  A    between atoms: CB_255  and  CG1_256
REMARK  143  A    between atoms: CB_255  and  CG2_257
REMARK  144  A    between atoms: CG1_256  and  CD1_258
REMARK  145  A    between atoms: N_259  and  CA_260
REMARK  146  A    between atoms: CA_260  and  C_261
REMARK  147  A    between atoms: CA_260  and  CB_263
REMARK  148  A    between atoms: CB_263  and  CG_264
REMARK  149  A    between atoms: CG_264  and  CD1_265
REMARK  150  A    between atoms: CG_264  and  CD2_266
REMARK  151  A    between atoms: N_267  and  CA_268
REMARK  152  A    between atoms: CA_268  and  C_269
REMARK  153  A    between atoms: CA_268  and  CB_271
REMARK  154  A    between atoms: N_272  and  CA_273
REMARK  155  A    between atoms: CA_273  and  C_274
REMARK  156  A    between atoms: CA_273  and  CB_276
REMARK  157  A    between atoms: CB_276  and  CG_277
REMARK  158  A    between atoms: CG_277  and  CD2_278
REMARK  159  A    between atoms: CG_277  and  CD1_279
REMARK  160  A    between atoms: N_280  and  CA_281
REMARK  161  A    between atoms: CA_281  and  C_282
REMARK  162  A    between atoms: CA_281  and  CB_284
REMARK  163  A    between atoms: CB_284  and  CG_285
REMARK  164  A    between atoms: CG_285  and  CD_286
REMARK  165  A    between atoms: CD_286  and  CE_287
REMARK  166  A    between atoms: CE_287  and  NZ_288
REMARK  167  A    between atoms: N_289  and  CA_290
REMARK  168  A    between atoms: CA_290  and  C_291
REMARK  169  A    between atoms: CA_290  and  CB_293
REMARK  170  A    between atoms: CB_293  and  CG2_294
REMARK  171  A    between atoms: CB_293  and  CG1_295
REMARK  172  A    between atoms: N_296  and  CA_297
REMARK  173  A    between atoms: CA_297  and  C_298
REMARK  174  A    between atoms: CA_297  and  CB_300
REMARK  175  A    between atoms: CB_300  and  CG_301
REMARK  176  A    between atoms: CG_301  and  CD1_302
REMARK  177  A    between atoms: CG_301  and  CD2_303
REMARK  178  A    between atoms: N_304  and  CA_305
REMARK  179  A    between atoms: CA_305  and  C_306
REMARK  180  A    between atoms: CA_305  and  CB_308
REMARK  181  A    between atoms: CB_308  and  CG_309
REMARK  182  A    between atoms: N_315  and  CA_316
REMARK  183  A    between atoms: CA_316  and  C_317
REMARK  184  A    between atoms: CA_316  and  CB_319
REMARK  185  A    between atoms: CB_319  and  CG_320
REMARK  186  A    between atoms: CG_320  and  CD_321
REMARK  187  A    between atoms: CD_321  and  CE_322
REMARK  188  A    between atoms: CE_322  and  NZ_323
REMARK  189  A    between atoms: N_324  and  CA_325
REMARK  190  A    between atoms: CA_325  and  C_326
REMARK  191  A    between atoms: CA_325  and  CB_328
REMARK  192  A    between atoms: N_329  and  CA_330
REMARK  193  A    between atoms: CA_330  and  C_331
REMARK  194  A    between atoms: CA_330  and  CB_333
REMARK  195  A    between atoms: CB_333  and  CG_334
REMARK  196  A    between atoms: CG_334  and  CD_335
REMARK  197  A    between atoms: N_338  and  CA_339
REMARK  198  A    between atoms: CA_339  and  C_340
REMARK  199  A    between atoms: CA_339  and  CB_342
REMARK  200  A    between atoms: CB_342  and  CG_343
REMARK  201  A    between atoms: CG_343  and  CD1_344
REMARK  202  A    between atoms: CG_343  and  CD2_345
REMARK  203  A    between atoms: N_346  and  CA_347
REMARK  204  A    between atoms: CA_347  and  C_348
REMARK  205  A    between atoms: CA_347  and  CB_350
REMARK  206  A    between atoms: CB_350  and  CG_351
REMARK  207  A    between atoms: CG_351  and  CD_352
REMARK  208  A    between atoms: N_355  and  C_356
REMARK  209  A    between atoms: C_356  and  C_357
REMARK  210  A    between atoms: C_356  and  C_359
REMARK  211  A    between atoms: C_359  and  C_360
REMARK  212  A    between atoms: N_361  and  CA_362
REMARK  213  A    between atoms: CA_362  and  C_363
REMARK  214  A    between atoms: CA_362  and  CB_365
REMARK  215  A    between atoms: N_366  and  CA_367
REMARK  216  A    between atoms: CA_367  and  C_368
REMARK  217  A    between atoms: N_370  and  CA_371
REMARK  218  A    between atoms: CA_371  and  C_372
REMARK  219  A    between atoms: CA_371  and  CB_374
REMARK  220  A    between atoms: CB_374  and  CG2_375
REMARK  221  A    between atoms: CB_374  and  CG1_376
REMARK  222  A    between atoms: N_377  and  CA_378
REMARK  223  A    between atoms: CA_378  and  C_379
REMARK  224  A    between atoms: CA_378  and  CB_381
REMARK  225  A    between atoms: CB_381  and  CG_382
REMARK  226  A    between atoms: CG_382  and  CD_383
REMARK  227  A    between atoms: N_386  and  CA_387
REMARK  228  A    between atoms: CA_387  and  C_388
REMARK  229  A    between atoms: CA_387  and  CB_390
REMARK  230  A    between atoms: CB_390  and  CG_391
REMARK  231  A    between atoms: N_396  and  CA_397
REMARK  232  A    between atoms: CA_397  and  C_398
REMARK  233  A    between atoms: CA_397  and  CB_400
REMARK  234  A    between atoms: CB_400  and  CG_401
REMARK  235  A    between atoms: CG_401  and  CD_402
REMARK  236  A    between atoms: N_405  and  CA_406
REMARK  237  A    between atoms: CA_406  and  C_407
REMARK  238  A    between atoms: CA_406  and  CB_409
REMARK  239  A    between atoms: CB_409  and  CG_410
REMARK  240  A    between atoms: CG_410  and  CD2_411
REMARK  241  A    between atoms: CG_410  and  CD1_412
REMARK  242  A    between atoms: N_413  and  CA_414
REMARK  243  A    between atoms: CA_414  and  C_415
REMARK  244  A    between atoms: CA_414  and  CB_417
REMARK  245  A    between atoms: CB_417  and  CG_418
REMARK  246  A    between atoms: CG_418  and  CD_419
REMARK  247  A    between atoms: CD_419  and  NE_420
REMARK  248  A    between atoms: N_424  and  CA_425
REMARK  249  A    between atoms: CA_425  and  C_426
REMARK  250  A    between atoms: CA_425  and  CB_428
REMARK  251  A    between atoms: CB_428  and  CG_429
REMARK  252  A    between atoms: CG_429  and  CD_430
REMARK  253  A    between atoms: CD_430  and  NE_431
REMARK  254  A    between atoms: N_435  and  CA_436
REMARK  255  A    between atoms: CA_436  and  C_437
REMARK  256  A    between atoms: CA_436  and  CB_439
REMARK  257  A    between atoms: CB_439  and  CG_440
REMARK  258  A    between atoms: CG_440  and  CD_441
REMARK  259  A    between atoms: N_444  and  CA_445
REMARK  260  A    between atoms: CA_445  and  C_446
REMARK  261  A    between atoms: CA_445  and  CB_448
REMARK  262  A    between atoms: CB_448  and  CG1_449
REMARK  263  A    between atoms: CB_448  and  CG2_450
REMARK  264  A    between atoms: N_451  and  C_452
REMARK  265  A    between atoms: C_452  and  C_453
REMARK  266  A    between atoms: C_452  and  C_455
REMARK  267  A    between atoms: C_455  and  C_456
REMARK  268  A    between atoms: N_457  and  CA_458
REMARK  269  A    between atoms: CA_458  and  C_459
REMARK  270  A    between atoms: CA_458  and  CB_461
REMARK  271  A    between atoms: CB_461  and  CG1_462
REMARK  272  A    between atoms: CB_461  and  CG2_463
REMARK  273  A    between atoms: CG1_462  and  CD1_464
REMARK  274  A    between atoms: N_465  and  CA_466
REMARK  275  A    between atoms: CA_466  and  C_467
REMARK  276  A    between atoms: CA_466  and  CB_469
REMARK  277  A    between atoms: CB_469  and  CG_470
REMARK  278  A    between atoms: CG_470  and  CD_471
REMARK  279  A    between atoms: N_474  and  C_475
REMARK  280  A    between atoms: C_475  and  C_476
REMARK  281  A    between atoms: C_475  and  C_478
REMARK  282  A    between atoms: C_478  and  O_479
REMARK  283  A    between atoms: N_480  and  C_481
REMARK  284  A    between atoms: C_481  and  C_482
REMARK  285  A    between atoms: C_481  and  C_484
REMARK  286  A    between atoms: C_484  and  C_485
REMARK  287  A    between atoms: N_490  and  C_491
REMARK  288  A    between atoms: C_491  and  C_492
REMARK  289  A    between atoms: C_491  and  C_494
REMARK  290  A    between atoms: C_494  and  C_495
REMARK  291  A    between atoms: C_495  and  C_496
REMARK  292  A    between atoms: C_495  and  C_497
REMARK  293  A    between atoms: N_498  and  C_499
REMARK  294  A    between atoms: C_499  and  C_500
REMARK  295  A    between atoms: C_499  and  C_502
REMARK  296  A    between atoms: C_502  and  C_503
REMARK  297  A    between atoms: C_503  and  C_504
REMARK  298  A    between atoms: C_504  and  N_505
REMARK  299  A    between atoms: N_509  and  C_510
REMARK  300  A    between atoms: C_510  and  C_511
REMARK  301  A    between atoms: C_510  and  C_513
REMARK  302  A    between atoms: C_513  and  C_514
REMARK  303  A    between atoms: C_520  and  C_521
REMARK  304  A    between atoms: N_526  and  C_527
REMARK  305  A    between atoms: C_527  and  C_528
REMARK  306  A    between atoms: C_527  and  C_530
REMARK  307  A    between atoms: C_530  and  C_531
REMARK  308  A    between atoms: N_534  and  C_535
REMARK  309  A    between atoms: C_535  and  C_536
REMARK  310  A    between atoms: C_535  and  C_538
REMARK  311  A    between atoms: C_538  and  C_539
REMARK  312  A    between atoms: C_538  and  C_540
REMARK  313  A    between atoms: C_539  and  C_541
REMARK  314  A    between atoms: N_542  and  C_543
REMARK  315  A    between atoms: C_543  and  C_544
REMARK  316  A    between atoms: C_543  and  C_546
REMARK  317  A    between atoms: C_546  and  C_547
REMARK  318  A    between atoms: C_547  and  C_548
REMARK  319  A    between atoms: C_547  and  C_549
REMARK  320  A    between atoms: N_550  and  C_551
REMARK  321  A    between atoms: C_551  and  C_552
REMARK  322  A    between atoms: C_551  and  C_554
REMARK  323  A    between atoms: C_554  and  C_555
REMARK  324  A    between atoms: C_555  and  C_556
REMARK  325  A    between atoms: C_556  and  N_557
REMARK  326  A    between atoms: N_561  and  C_562
REMARK  327  A    between atoms: C_562  and  C_567
REMARK  328  A    between atoms: C_563  and  C_564
REMARK  329  A    between atoms: C_568  and  C_569
REMARK  330  A    between atoms: C_568  and  C_571
REMARK  331  A    between atoms: C_569  and  C_572
REMARK  332  A    between atoms: C_569  and  C_573
REMARK  333  A    between atoms: C_570  and  C_573
REMARK  334  A    between atoms: N_574  and  CA_575
REMARK  335  A    between atoms: CA_575  and  C_576
REMARK  336  A    between atoms: CA_575  and  CB_578
REMARK  337  A    between atoms: CB_578  and  CG_579
REMARK  338  A    between atoms: CZ_584  and  OH_585
REMARK  339  A    between atoms: N_586  and  CA_587
REMARK  340  A    between atoms: CA_587  and  C_588
REMARK  341  A    between atoms: N_590  and  CA_591
REMARK  342  A    between atoms: CA_591  and  C_592
REMARK  343  A    between atoms: CA_591  and  CB_594
REMARK  344  A    between atoms: CB_594  and  CG_595
REMARK  345  A    between atoms: CZ_600  and  OH_601
REMARK  346  A    between atoms: N_602  and  CA_603
REMARK  347  A    between atoms: CA_603  and  C_604
REMARK  348  A    between atoms: CA_603  and  CB_606
REMARK  349  A    between atoms: CB_606  and  CG_607
REMARK  350  A    between atoms: N_613  and  CA_614
REMARK  351  A    between atoms: CA_614  and  C_615
REMARK  352  A    between atoms: CA_614  and  CB_617
REMARK  353  A    between atoms: CB_617  and  CG_618
REMARK  354  A    between atoms: N_623  and  CA_624
REMARK  355  A    between atoms: CA_624  and  C_625
REMARK  356  A    between atoms: CA_624  and  CB_627
REMARK  357  A    between atoms: CB_627  and  CG_628
REMARK  358  A    between atoms: N_631  and  CA_632
REMARK  359  A    between atoms: CA_632  and  C_633
REMARK  360  A    between atoms: CA_632  and  CB_635
REMARK  361  A    between atoms: N_636  and  CA_637
REMARK  362  A    between atoms: CA_637  and  C_638
REMARK  363  A    between atoms: CA_637  and  CB_640
REMARK  364  A    between atoms: CB_640  and  OG1_641
REMARK  365  A    between atoms: CB_640  and  CG2_642
REMARK  366  A    between atoms: N_643  and  CA_644
REMARK  367  A    between atoms: CA_644  and  C_645
REMARK  368  A    between atoms: CA_644  and  CB_647
REMARK  369  A    between atoms: CB_647  and  CG_648
REMARK  370  A    between atoms: CG_648  and  CD_649
REMARK  371  A    between atoms: CD_649  and  NE_650
REMARK  372  A    between atoms: N_654  and  CA_655
REMARK  373  A    between atoms: CA_655  and  C_656
REMARK  374  A    between atoms: CA_655  and  CB_658
REMARK  375  A    between atoms: CB_658  and  CG1_659
REMARK  376  A    between atoms: CB_658  and  CG2_660
REMARK  377  A    between atoms: N_661  and  CA_662
REMARK  378  A    between atoms: CA_662  and  C_663
REMARK  379  A    between atoms: CA_662  and  CB_665
REMARK  380  A    between atoms: CB_665  and  CG_666
REMARK  381  A    between atoms: CZ_671  and  OH_672
REMARK  382  A    between atoms: N_673  and  CA_674
REMARK  383  A    between atoms: CA_674  and  C_675
REMARK  384  A    between atoms: CA_674  and  CB_677
REMARK  385  A    between atoms: CB_677  and  CG_678
REMARK  386  A    between atoms: CG_678  and  CD2_679
REMARK  387  A    between atoms: CG_678  and  CD1_680
REMARK  388  A    between atoms: N_681  and  CA_682
REMARK  389  A    between atoms: CA_682  and  C_683
REMARK  390  A    between atoms: CA_682  and  CB_685
REMARK  391  A    between atoms: CB_685  and  CG1_686
REMARK  392  A    between atoms: CB_685  and  CG2_687
REMARK  393  A    between atoms: CG1_686  and  CD1_688
REMARK  394  A    between atoms: N_689  and  CA_690
REMARK  395  A    between atoms: CA_690  and  C_691
REMARK  396  A    between atoms: CA_690  and  CB_693
REMARK  397  A    between atoms: CB_693  and  CG_694
REMARK  398  A    between atoms: CG_694  and  CD2_695
REMARK  399  A    between atoms: CG_694  and  CD1_696
REMARK  400  A    between atoms: N_697  and  CA_698
REMARK  401  A    between atoms: CA_698  and  C_699
REMARK  402  A    between atoms: CA_698  and  CB_701
REMARK  403  A    between atoms: CB_701  and  CG_702
REMARK  404  A    between atoms: CG_702  and  CD_703
REMARK  405  A    between atoms: N_706  and  CA_707
REMARK  406  A    between atoms: CA_707  and  C_708
REMARK  407  A    between atoms: CA_707  and  CB_710
REMARK  408  A    between atoms: CB_710  and  CG_711
REMARK  409  A    between atoms: CZ_716  and  OH_717
REMARK  410  A    between atoms: N_718  and  CA_719
REMARK  411  A    between atoms: CA_719  and  C_720
REMARK  412  A    between atoms: CA_719  and  CB_722
REMARK  413  A    between atoms: CA_724  and  C_725
REMARK  414  A    between atoms: N_730  and  CA_731
REMARK  415  A    between atoms: CA_731  and  C_732
REMARK  416  A    between atoms: CA_731  and  CB_734
REMARK  417  A    between atoms: CB_734  and  CG_735
REMARK  418  A    between atoms: CG_735  and  CD1_736
REMARK  419  A    between atoms: CG_735  and  CD2_737
REMARK  420  A    between atoms: N_738  and  CA_739
REMARK  421  A    between atoms: CA_739  and  C_740
REMARK  422  A    between atoms: N_742  and  CA_743
REMARK  423  A    between atoms: CA_743  and  C_744
REMARK  424  A    between atoms: CA_743  and  CB_746
REMARK  425  A    between atoms: CB_746  and  OG1_747
REMARK  426  A    between atoms: CB_746  and  CG2_748
REMARK  427  A    between atoms: N_749  and  CA_750
REMARK  428  A    between atoms: CA_750  and  C_751
REMARK  429  A    between atoms: CA_750  and  CB_753
REMARK  430  A    between atoms: CB_753  and  CG2_754
REMARK  431  A    between atoms: CB_753  and  CG1_755
REMARK  432  A    between atoms: N_756  and  CA_757
REMARK  433  A    between atoms: CA_757  and  C_758
REMARK  434  A    between atoms: CA_757  and  CB_760
REMARK  435  A    between atoms: CB_760  and  CG_761
REMARK  436  A    between atoms: CZ_766  and  OH_767
REMARK  437  A    between atoms: N_768  and  C_769
REMARK  438  A    between atoms: C_769  and  C_770
REMARK  439  A    between atoms: C_769  and  C_772
REMARK  440  A    between atoms: C_772  and  C_773
REMARK  441  A    between atoms: N_774  and  CA_775
REMARK  442  A    between atoms: CA_775  and  C_776
REMARK  443  A    between atoms: CA_775  and  CB_778
REMARK  444  A    between atoms: CB_778  and  CG_779
REMARK  445  A    between atoms: CG_779  and  CD_780
REMARK  446  A    between atoms: N_783  and  CA_784
REMARK  447  A    between atoms: CA_784  and  C_785
REMARK  448  A    between atoms: CA_784  and  CB_787
REMARK  449  A    between atoms: CB_787  and  CG_788
REMARK  450  A    between atoms: CG_788  and  CD2_789
REMARK  451  A    between atoms: CG_788  and  CD1_790
REMARK  452  A    between atoms: N_791  and  CA_792
REMARK  453  A    between atoms: CA_792  and  C_793
REMARK  454  A    between atoms: CA_792  and  CB_795
REMARK  455  A    between atoms: CB_795  and  CG_796
REMARK  456  A    between atoms: CG_796  and  CD_797
REMARK  457  A    between atoms: N_800  and  CA_801
REMARK  458  A    between atoms: CA_801  and  C_802
REMARK  459  A    between atoms: CA_801  and  CB_804
REMARK  460  A    between atoms: CB_804  and  CG_805
REMARK  461  A    between atoms: CG_805  and  CD_806
REMARK  462  A    between atoms: CD_806  and  CE_807
REMARK  463  A    between atoms: CE_807  and  NZ_808
REMARK  464  A    between atoms: N_809  and  CA_810
REMARK  465  A    between atoms: CA_810  and  C_811
REMARK  466  A    between atoms: CA_810  and  CB_813
REMARK  467  A    between atoms: CB_813  and  CG_814
REMARK  468  A    between atoms: CG_814  and  CD1_815
REMARK  469  A    between atoms: CG_814  and  CD2_816
REMARK  470  A    between atoms: N_817  and  CA_818
REMARK  471  A    between atoms: CA_818  and  C_819
REMARK  472  A    between atoms: CA_818  and  CB_821
REMARK  473  A    between atoms: CB_821  and  OG_822
REMARK  474  A    between atoms: N_823  and  CA_824
REMARK  475  A    between atoms: CA_824  and  C_825
REMARK  476  A    between atoms: CA_824  and  CB_827
REMARK  477  A    between atoms: CB_827  and  CG_828
REMARK  478  A    between atoms: CG_828  and  CD_829
REMARK  479  A    between atoms: CD_829  and  CE_830
REMARK  480  A    between atoms: CE_830  and  NZ_831
REMARK  481  A    between atoms: N_832  and  CA_833
REMARK  482  A    between atoms: CA_833  and  C_834
REMARK  483  A    between atoms: CA_833  and  CB_836
REMARK  484  A    between atoms: CB_836  and  CG_837
REMARK  485  A    between atoms: N_843  and  CA_844
REMARK  486  A    between atoms: CA_844  and  C_845
REMARK  487  A    between atoms: CA_844  and  CB_847
REMARK  488  A    between atoms: CB_847  and  CG_848
REMARK  489  A    between atoms: N_851  and  CA_852
REMARK  490  A    between atoms: CA_852  and  C_853
REMARK  491  A    between atoms: CA_852  and  CB_855
REMARK  492  A    between atoms: CB_855  and  CG_856
REMARK  493  A    between atoms: CG_856  and  CD_857
REMARK  494  A    between atoms: N_860  and  CA_861
REMARK  495  A    between atoms: CA_861  and  C_862
REMARK  496  A    between atoms: CA_861  and  CB_864
REMARK  497  A    between atoms: CB_864  and  CG_865
REMARK  498  A    between atoms: CG_865  and  CD_866
REMARK  499  A    between atoms: N_869  and  CA_870
REMARK  500  A    between atoms: CA_870  and  C_871
REMARK  501  A    between atoms: CA_870  and  CB_873
REMARK  502  A    between atoms: CB_873  and  CG_874
REMARK  503  A    between atoms: CG_874  and  CD_875
REMARK  504  A    between atoms: CD_875  and  NE_876
REMARK  505  A    between atoms: N_880  and  CA_881
REMARK  506  A    between atoms: CA_881  and  C_882
REMARK  507  A    between atoms: CA_881  and  CB_884
REMARK  508  A    between atoms: CB_884  and  OG1_885
REMARK  509  A    between atoms: CB_884  and  CG2_886
REMARK  510  A    between atoms: N_887  and  CA_888
REMARK  511  A    between atoms: CA_888  and  C_889
REMARK  512  A    between atoms: CA_888  and  CB_891
REMARK  513  A    between atoms: N_892  and  CA_893
REMARK  514  A    between atoms: CA_893  and  C_894
REMARK  515  A    between atoms: CA_893  and  CB_896
REMARK  516  A    between atoms: CB_896  and  OG1_897
REMARK  517  A    between atoms: CB_896  and  CG2_898
REMARK  518  A    between atoms: N_899  and  CA_900
REMARK  519  A    between atoms: CA_900  and  C_901
REMARK  520  A    between atoms: CA_900  and  CB_903
REMARK  521  A    between atoms: CB_903  and  CG_904
REMARK  522  A    between atoms: CZ_909  and  OH_910
REMARK  523  A    between atoms: N_911  and  CA_912
REMARK  524  A    between atoms: CA_912  and  C_913
REMARK  525  A    between atoms: CA_912  and  CB_915
REMARK  526  A    between atoms: CB_915  and  CG1_916
REMARK  527  A    between atoms: CB_915  and  CG2_917
REMARK  528  A    between atoms: CG1_916  and  CD1_918
REMARK  529  A    between atoms: N_919  and  CA_920
REMARK  530  A    between atoms: CA_920  and  C_921
REMARK  531  A    between atoms: CA_920  and  CB_923
REMARK  532  A    between atoms: CB_923  and  OG1_924
REMARK  533  A    between atoms: CB_923  and  CG2_925
REMARK  534  A    between atoms: N_926  and  CA_927
REMARK  535  A    between atoms: CA_927  and  C_928
REMARK  536  A    between atoms: CA_927  and  CB_930
REMARK  537  A    between atoms: CB_930  and  CG_931
REMARK  538  A    between atoms: CG_931  and  CD_932
REMARK  539  A    between atoms: N_935  and  CA_936
REMARK  540  A    between atoms: CA_936  and  C_937
REMARK  541  A    between atoms: CA_936  and  CB_939
REMARK  542  A    between atoms: CB_939  and  CG_940
REMARK  543  A    between atoms: CG_940  and  CD2_941
REMARK  544  A    between atoms: CG_940  and  CD1_942
REMARK  545  A    between atoms: N_943  and  CA_944
REMARK  546  A    between atoms: CA_944  and  C_945
REMARK  547  A    between atoms: CA_944  and  CB_947
REMARK  548  A    between atoms: N_948  and  CA_949
REMARK  549  A    between atoms: CA_949  and  C_950
REMARK  550  A    between atoms: CA_949  and  CB_952
REMARK  551  A    between atoms: CB_952  and  CG_953
REMARK  552  A    between atoms: N_956  and  CA_957
REMARK  553  A    between atoms: CA_957  and  C_958
REMARK  554  A    between atoms: CA_957  and  CB_960
REMARK  555  A    between atoms: N_961  and  CA_962
REMARK  556  A    between atoms: CA_962  and  C_963
REMARK  557  A    between atoms: CA_962  and  CB_965
REMARK  558  A    between atoms: CB_965  and  CG_966
REMARK  559  A    between atoms: CG_966  and  CD2_967
REMARK  560  A    between atoms: CG_966  and  CD1_968
REMARK  561  A    between atoms: N_969  and  CA_970
REMARK  562  A    between atoms: CA_970  and  C_971
REMARK  563  A    between atoms: CA_970  and  CB_973
REMARK  564  A    between atoms: CB_973  and  OG_974
REMARK  565  A    between atoms: N_975  and  CA_976
REMARK  566  A    between atoms: CA_976  and  C_977
REMARK  567  A    between atoms: CA_976  and  CB_979
REMARK  568  A    between atoms: CB_979  and  CG_980
REMARK  569  A    between atoms: CZ_985  and  OH_986
REMARK  570  A    between atoms: N_987  and  CA_988
REMARK  571  A    between atoms: CA_988  and  C_989
REMARK  572  A    between atoms: CA_988  and  CB_991
REMARK  573  A    between atoms: CB_991  and  SG_992
REMARK  574  A    between atoms: N_993  and  CA_994
REMARK  575  A    between atoms: CA_994  and  C_995
REMARK  576  A    between atoms: CA_994  and  CB_997
REMARK  577  A    between atoms: CB_997  and  CG_998
REMARK  578  A    between atoms: N_1003  and  C_1004
REMARK  579  A    between atoms: C_1004  and  C_1005
REMARK  580  A    between atoms: C_1004  and  C_1007
REMARK  581  A    between atoms: C_1007  and  O_1008
REMARK  582  A    between atoms: N_1009  and  C_1010
REMARK  583  A    between atoms: C_1010  and  C_1011
REMARK  584  A    between atoms: C_1010  and  C_1013
REMARK  585  A    between atoms: C_1013  and  C_1014
REMARK  586  A    between atoms: C_1014  and  C_1015
REMARK  587  A    between atoms: C_1015  and  C_1016
REMARK  588  A    between atoms: C_1016  and  N_1017
REMARK  589  A    between atoms: N_1018  and  C_1019
REMARK  590  A    between atoms: C_1020  and  C_1021
REMARK  591  A    between atoms: C_1020  and  C_1024
REMARK  592  A    between atoms: C_1023  and  C_1026
REMARK  593  A    between atoms: C_1025  and  C_1026
REMARK  594  A    between atoms: C_1027  and  N_1029
REMARK  595  A    between atoms: C_1028  and  N_1030
REMARK  596  A    between atoms: N_1037  and  C_1038
REMARK  597  A    between atoms: C_1038  and  C_1039
REMARK  598  A    between atoms: C_1038  and  C_1041
REMARK  599  A    between atoms: C_1041  and  C_1042
REMARK  600  A    between atoms: C_1041  and  C_1043
REMARK  601  A    between atoms: N_1044  and  C_1045
REMARK  602  A    between atoms: C_1045  and  C_1046
REMARK  603  A    between atoms: C_1045  and  C_1048
REMARK  604  A    between atoms: C_1048  and  C_1049
REMARK  605  A    between atoms: C_1048  and  C_1050
REMARK  606  A    between atoms: C_1049  and  C_1051
REMARK  607  A    between atoms: N_1052  and  C_1053
REMARK  608  A    between atoms: C_1053  and  C_1054
REMARK  609  A    between atoms: C_1053  and  C_1056
REMARK  610  A    between atoms: C_1056  and  C_1057
REMARK  611  A    between atoms: N_1062  and  C_1063
REMARK  612  A    between atoms: C_1063  and  C_1064
REMARK  613  A    between atoms: C_1063  and  C_1066
REMARK  614  A    between atoms: C_1066  and  C_1067
REMARK  615  A    between atoms: C_1067  and  C_1068
REMARK  616  A    between atoms: C_1068  and  N_1069
REMARK  617  A    between atoms: N_1073  and  C_1074
REMARK  618  A    between atoms: C_1074  and  C_1077
REMARK  619  A    between atoms: C_1077  and  C_1078
REMARK  620  A    between atoms: N_1081  and  C_1084
REMARK  621  A    between atoms: C_1083  and  C_1085
REMARK  622  A    between atoms: C_1085  and  C_1086
REMARK  623  A    between atoms: C_1085  and  O_1087
REMARK  624  A    between atoms: C_1085  and  N_1097
REMARK  625  A    between atoms: C_1089  and  C_1094
REMARK  626  A    between atoms: C_1090  and  C_1091
REMARK  627  A    between atoms: C_1093  and  C_1094
REMARK  628  A    between atoms: C_1098  and  C_1099
REMARK  629  A    between atoms: C_1098  and  C_1101
REMARK  630  A    between atoms: C_1101  and  C_1102
REMARK  631  A    between atoms: C_1102  and  C_1103
REMARK  632  A    between atoms: C_1103  and  C_1104
REMARK  633  A    between atoms: C_1104  and  N_1105
REMARK  634  A    between atoms: C_1107  and  C_1108
REMARK  635  A    between atoms: N_1113  and  CA_1114
REMARK  636  A    between atoms: CA_1114  and  C_1115
REMARK  637  A    between atoms: CA_1114  and  CB_1117
REMARK  638  A    between atoms: CB_1117  and  CG_1118
REMARK  639  A    between atoms: CG_1118  and  CD_1119
REMARK  640  A    between atoms: N_1122  and  CA_1123
REMARK  641  A    between atoms: CA_1123  and  C_1124
REMARK  642  A    between atoms: CA_1123  and  CB_1126
REMARK  643  A    between atoms: CB_1126  and  CG_1127
REMARK  644  A    between atoms: N_1130  and  CA_1131
REMARK  645  A    between atoms: CA_1131  and  C_1132
REMARK  646  A    between atoms: CA_1131  and  CB_1134
REMARK  647  A    between atoms: CB_1134  and  CG_1135
REMARK  648  A    between atoms: CG_1135  and  CD2_1136
REMARK  649  A    between atoms: CG_1135  and  CD1_1137
REMARK  650  A    between atoms: N_1138  and  CA_1139
REMARK  651  A    between atoms: CA_1139  and  C_1140
REMARK  652  A    between atoms: CA_1139  and  CB_1142
REMARK  653  A    between atoms: CB_1142  and  CG_1143
REMARK  654  A    between atoms: CG_1143  and  CD1_1144
REMARK  655  A    between atoms: CG_1143  and  CD2_1145
REMARK  656  A    between atoms: N_1146  and  CA_1147
REMARK  657  A    between atoms: CA_1147  and  C_1148
REMARK  658  A    between atoms: CA_1147  and  CB_1150
REMARK  659  A    between atoms: CB_1150  and  CG_1151
REMARK  660  A    between atoms: CG_1151  and  CD2_1152
REMARK  661  A    between atoms: CG_1151  and  CD1_1153
REMARK  662  A    between atoms: N_1154  and  CA_1155
REMARK  663  A    between atoms: CA_1155  and  C_1156
REMARK  664  A    between atoms: N_1158  and  CA_1159
REMARK  665  A    between atoms: CA_1159  and  C_1160
REMARK  666  A    between atoms: CA_1159  and  CB_1162
REMARK  667  A    between atoms: CB_1162  and  OG_1163
REMARK  668  A    between atoms: N_1164  and  CA_1165
REMARK  669  A    between atoms: CA_1165  and  C_1166
REMARK  670  A    between atoms: CA_1165  and  CB_1168
REMARK  671  A    between atoms: N_1169  and  CA_1170
REMARK  672  A    between atoms: CA_1170  and  C_1171
REMARK  673  A    between atoms: N_1173  and  CA_1174
REMARK  674  A    between atoms: CA_1174  and  C_1175
REMARK  675  A    between atoms: CA_1174  and  CB_1177
REMARK  676  A    between atoms: CB_1177  and  CG_1178
REMARK  677  A    between atoms: CG_1178  and  CD_1179
REMARK  678  A    between atoms: N_1182  and  CA_1183
REMARK  679  A    between atoms: CA_1183  and  C_1184
REMARK  680  A    between atoms: CA_1183  and  CB_1186
REMARK  681  A    between atoms: CB_1186  and  CG_1187
REMARK  682  A    between atoms: CG_1187  and  CD2_1188
REMARK  683  A    between atoms: CG_1187  and  CD1_1189
REMARK  684  A    between atoms: N_1190  and  CA_1191
REMARK  685  A    between atoms: CA_1191  and  C_1192
REMARK  686  A    between atoms: CA_1191  and  CB_1194
REMARK  687  A    between atoms: CB_1194  and  CG_1195
REMARK  688  A    between atoms: CG_1195  and  CD_1196
REMARK  689  A    between atoms: CD_1196  and  CE_1197
REMARK  690  A    between atoms: CE_1197  and  NZ_1198
REMARK  691  A    between atoms: N_1199  and  CA_1200
REMARK  692  A    between atoms: CA_1200  and  C_1201
REMARK  693  A    between atoms: CA_1200  and  CB_1203
REMARK  694  A    between atoms: CB_1203  and  CG1_1204
REMARK  695  A    between atoms: CB_1203  and  CG2_1205
REMARK  696  A    between atoms: CG1_1204  and  CD1_1206
REMARK  697  A    between atoms: N_1207  and  CA_1208
REMARK  698  A    between atoms: CA_1208  and  C_1209
REMARK  699  A    between atoms: CA_1208  and  CB_1211
REMARK  700  A    between atoms: N_1212  and  CA_1213
REMARK  701  A    between atoms: CA_1213  and  C_1214
REMARK  702  A    between atoms: CA_1213  and  CB_1216
REMARK  703  A    between atoms: CB_1216  and  CG_1217
REMARK  704  A    between atoms: N_1220  and  CA_1221
REMARK  705  A    between atoms: CA_1221  and  C_1222
REMARK  706  A    between atoms: CA_1221  and  CB_1224
REMARK  707  A    between atoms: CB_1224  and  CG_1225
REMARK  708  A    between atoms: N_1231  and  CA_1232
REMARK  709  A    between atoms: CA_1232  and  C_1233
REMARK  710  A    between atoms: N_1235  and  CA_1236
REMARK  711  A    between atoms: CA_1236  and  C_1237
REMARK  712  A    between atoms: CA_1236  and  CB_1239
REMARK  713  A    between atoms: CB_1239  and  CG_1240
REMARK  714  A    between atoms: N_1249  and  CA_1250
REMARK  715  A    between atoms: CA_1250  and  C_1251
REMARK  716  A    between atoms: CA_1250  and  CB_1253
REMARK  717  A    between atoms: CB_1253  and  OG_1254
REMARK  718  A    between atoms: N_1255  and  CA_1256
REMARK  719  A    between atoms: CA_1256  and  C_1257
REMARK  720  A    between atoms: CA_1256  and  CB_1259
REMARK  721  A    between atoms: CB_1259  and  CG2_1260
REMARK  722  A    between atoms: CB_1259  and  CG1_1261
REMARK  723  A    between atoms: N_1262  and  CA_1263
REMARK  724  A    between atoms: CA_1263  and  C_1264
REMARK  725  A    between atoms: CA_1263  and  CB_1266
REMARK  726  A    between atoms: CB_1266  and  CG_1267
REMARK  727  A    between atoms: N_1272  and  CA_1273
REMARK  728  A    between atoms: CA_1273  and  C_1274
REMARK  729  A    between atoms: CA_1273  and  CB_1276
REMARK  730  A    between atoms: CA_1278  and  C_1279
REMARK  731  A    between atoms: N_1284  and  CA_1285
REMARK  732  A    between atoms: CA_1285  and  C_1286
REMARK  733  A    between atoms: CA_1285  and  CB_1288
REMARK  734  A    between atoms: CB_1288  and  OG_1289
REMARK  735  A    between atoms: N_1290  and  CA_1291
REMARK  736  A    between atoms: CA_1291  and  C_1292
REMARK  737  A    between atoms: CA_1291  and  CB_1294
REMARK  738  A    between atoms: CB_1294  and  OG_1295
REMARK  739  A    between atoms: N_1296  and  C_1297
REMARK  740  A    between atoms: C_1297  and  C_1298
REMARK  741  A    between atoms: C_1297  and  C_1300
REMARK  742  A    between atoms: C_1300  and  C_1301
REMARK  743  A    between atoms: C_1301  and  C_1302
REMARK  744  A    between atoms: N_1303  and  CA_1304
REMARK  745  A    between atoms: CA_1304  and  C_1305
REMARK  746  A    between atoms: CA_1304  and  CB_1307
REMARK  747  A    between atoms: CB_1307  and  CG_1308
REMARK  748  A    between atoms: CG_1308  and  CD_1309
REMARK  749  A    between atoms: CD_1309  and  NE_1310
REMARK  750  A    between atoms: N_1314  and  CA_1315
REMARK  751  A    between atoms: CA_1315  and  C_1316
REMARK  752  A    between atoms: CA_1315  and  CB_1318
REMARK  753  A    between atoms: CB_1318  and  OG1_1319
REMARK  754  A    between atoms: CB_1318  and  CG2_1320
REMARK  755  A    between atoms: N_1321  and  C_1322
REMARK  756  A    between atoms: C_1322  and  C_1323
REMARK  757  A    between atoms: C_1322  and  C_1325
REMARK  758  A    between atoms: C_1325  and  C_1326
REMARK  759  A    between atoms: C_1326  and  C_1327
REMARK  760  A    between atoms: C_1326  and  C_1328
REMARK  761  A    between atoms: N_1329  and  C_1330
REMARK  762  A    between atoms: C_1330  and  C_1331
REMARK  763  A    between atoms: C_1330  and  C_1333
REMARK  764  A    between atoms: N_1334  and  C_1335
REMARK  765  A    between atoms: C_1335  and  C_1336
REMARK  766  A    between atoms: N_1338  and  C_1339
REMARK  767  A    between atoms: C_1339  and  C_1340
REMARK  768  A    between atoms: C_1339  and  C_1342
REMARK  769  A    between atoms: C_1342  and  O_1343
REMARK  770  A    between atoms: C_1342  and  C_1344
REMARK  771  A    between atoms: N_1345  and  C_1346
REMARK  772  A    between atoms: C_1346  and  C_1347
REMARK  773  A    between atoms: C_1346  and  C_1349
REMARK  774  A    between atoms: C_1349  and  C_1350
REMARK  775  A    between atoms: C_1350  and  C_1351
REMARK  776  A    between atoms: C_1350  and  C_1352
REMARK  777  A    between atoms: N_1353  and  C_1354
REMARK  778  A    between atoms: C_1354  and  C_1355
REMARK  779  A    between atoms: C_1354  and  C_1357
REMARK  780  A    between atoms: C_1357  and  C_1358
REMARK  781  A    between atoms: N_1361  and  C_1362
REMARK  782  A    between atoms: C_1362  and  C_1363
REMARK  783  A    between atoms: C_1362  and  C_1365
REMARK  784  A    between atoms: C_1365  and  C_1366
REMARK  785  A    between atoms: C_1371  and  O_1372
REMARK  786  A    between atoms: N_1373  and  C_1374
REMARK  787  A    between atoms: C_1374  and  C_1375
REMARK  788  A    between atoms: C_1374  and  C_1377
REMARK  789  A    between atoms: C_1377  and  C_1378
REMARK  790  A    between atoms: C_1378  and  C_1379
REMARK  791  A    between atoms: C_1378  and  C_1380
REMARK  792  A    between atoms: C_1382  and  C_1383
REMARK  793  A    between atoms: C_1389  and  C_1390
REMARK  794  A    between atoms: N_1395  and  C_1396
REMARK  795  A    between atoms: C_1396  and  C_1399
REMARK  796  A    between atoms: C_1399  and  C_1400
REMARK  797  A    between atoms: C_1400  and  C_1401
REMARK  798  A    between atoms: N_1405  and  C_1406
REMARK  799  A    between atoms: C_1407  and  C_1412
REMARK  800  A    between atoms: C_1408  and  O_1410
REMARK  801  A    between atoms: C_1409  and  O_1411
REMARK  802  A    between atoms: O_1410  and  O_1411
REMARK  803  A    between atoms: C_1412  and  C_1414
REMARK  804  A    between atoms: C_1413  and  C_1415
REMARK  805  A    between atoms: S_1416  and  C_1418
REMARK  806  A    between atoms: S_1417  and  C_1419
REMARK  807  A    between atoms: C_1418  and  C_1419
REMARK  808  A    between atoms: N_1420  and  CA_1421
REMARK  809  A    between atoms: CA_1421  and  C_1422
REMARK  810  A    between atoms: CA_1421  and  CB_1424
REMARK  811  A    between atoms: CB_1424  and  CG1_1425
REMARK  812  A    between atoms: CB_1424  and  CG2_1426
REMARK  813  A    between atoms: CG1_1425  and  CD1_1427
REMARK  814  A    between atoms: N_1428  and  CA_1429
REMARK  815  A    between atoms: CA_1429  and  C_1430
REMARK  816  A    between atoms: CA_1429  and  CB_1432
REMARK  817  A    between atoms: CB_1432  and  CG_1433
REMARK  818  A    between atoms: CG_1433  and  CD_1434
REMARK  819  A    between atoms: N_1437  and  CA_1438
REMARK  820  A    between atoms: CA_1438  and  C_1439
REMARK  821  A    between atoms: N_1441  and  CA_1442
REMARK  822  A    between atoms: CA_1442  and  C_1443
REMARK  823  A    between atoms: CA_1442  and  CB_1445
REMARK  824  A    between atoms: CB_1445  and  CG_1446
REMARK  825  A    between atoms: CG_1446  and  CD_1447
REMARK  826  A    between atoms: CD_1447  and  NE_1448
REMARK  827  A    between atoms: N_1452  and  C_1453
REMARK  828  A    between atoms: C_1453  and  C_1454
REMARK  829  A    between atoms: C_1453  and  C_1456
REMARK  830  A    between atoms: C_1456  and  C_1457
REMARK  831  A    between atoms: C_1457  and  S_1458
REMARK  832  A    between atoms: N_1459  and  CA_1460
REMARK  833  A    between atoms: CA_1460  and  C_1461
REMARK  834  A    between atoms: CA_1460  and  CB_1463
REMARK  835  A    between atoms: CB_1463  and  CG_1464
REMARK  836  A    between atoms: N_1469  and  CA_1470
REMARK  837  A    between atoms: CA_1470  and  C_1471
REMARK  838  A    between atoms: CA_1470  and  CB_1473
REMARK  839  A    between atoms: CB_1473  and  CG_1474
REMARK  840  A    between atoms: N_1477  and  CA_1478
REMARK  841  A    between atoms: CA_1478  and  C_1479
REMARK  842  A    between atoms: CA_1478  and  CB_1481
REMARK  843  A    between atoms: CB_1481  and  CG_1482
REMARK  844  A    between atoms: CG_1482  and  CD_1483
REMARK  845  A    between atoms: N_1486  and  CA_1487
REMARK  846  A    between atoms: CA_1487  and  C_1488
REMARK  847  A    between atoms: CA_1487  and  CB_1490
REMARK  848  A    between atoms: CB_1490  and  CG_1491
REMARK  849  A    between atoms: CG_1491  and  CD_1492
REMARK  850  A    between atoms: CD_1492  and  CE_1493
REMARK  851  A    between atoms: CE_1493  and  NZ_1494
REMARK  852  A    between atoms: N_1495  and  CA_1496
REMARK  853  A    between atoms: CA_1496  and  C_1497
REMARK  854  A    between atoms: CA_1496  and  CB_1499
REMARK  855  A    between atoms: CB_1499  and  CG2_1500
REMARK  856  A    between atoms: CB_1499  and  CG1_1501
REMARK  857  A    between atoms: N_1502  and  CA_1503
REMARK  858  A    between atoms: CA_1503  and  C_1504
REMARK  859  A    between atoms: CA_1503  and  CB_1506
REMARK  860  A    between atoms: CB_1506  and  CG_1507
REMARK  861  A    between atoms: N_1510  and  CA_1511
REMARK  862  A    between atoms: CA_1511  and  C_1512
REMARK  863  A    between atoms: CA_1511  and  CB_1514
REMARK  864  A    between atoms: CB_1514  and  CG_1515
REMARK  865  A    between atoms: CG_1515  and  CD2_1516
REMARK  866  A    between atoms: CG_1515  and  CD1_1517
REMARK  867  A    between atoms: N_1518  and  CA_1519
REMARK  868  A    between atoms: CA_1519  and  C_1520
REMARK  869  A    between atoms: CA_1519  and  CB_1522
REMARK  870  A    between atoms: CB_1522  and  CG_1523
REMARK  871  A    between atoms: N_1532  and  CA_1533
REMARK  872  A    between atoms: CA_1533  and  C_1534
REMARK  873  A    between atoms: CA_1533  and  CB_1536
REMARK  874  A    between atoms: CB_1536  and  OG_1537
REMARK  875  A    between atoms: N_1538  and  CA_1539
REMARK  876  A    between atoms: CA_1539  and  C_1540
REMARK  877  A    between atoms: CA_1539  and  CB_1542
REMARK  878  A    between atoms: CB_1542  and  CG_1543
REMARK  879  A    between atoms: CG_1543  and  CD2_1544
REMARK  880  A    between atoms: CG_1543  and  CD1_1545
REMARK  881  A    between atoms: N_1546  and  CA_1547
REMARK  882  A    between atoms: CA_1547  and  C_1548
REMARK  883  A    between atoms: N_1550  and  CA_1551
REMARK  884  A    between atoms: CA_1551  and  C_1552
REMARK  885  A    between atoms: CA_1551  and  CB_1554
REMARK  886  A    between atoms: CB_1554  and  CG2_1555
REMARK  887  A    between atoms: CB_1554  and  CG1_1556
REMARK  888  A    between atoms: N_1557  and  CA_1558
REMARK  889  A    between atoms: CA_1558  and  C_1559
REMARK  890  A    between atoms: CA_1558  and  CB_1561
REMARK  891  A    between atoms: CB_1561  and  CG_1562
REMARK  892  A    between atoms: CG_1562  and  CD1_1563
REMARK  893  A    between atoms: CG_1562  and  CD2_1564
REMARK  894  A    between atoms: N_1565  and  CA_1566
REMARK  895  A    between atoms: CA_1566  and  C_1567
REMARK  896  A    between atoms: CA_1566  and  CB_1569
REMARK  897  A    between atoms: CB_1569  and  SG_1570
REMARK  898  A    between atoms: N_1571  and  CA_1572
REMARK  899  A    between atoms: CA_1572  and  C_1573
REMARK  900  A    between atoms: CA_1572  and  CB_1575
REMARK  901  A    between atoms: CB_1575  and  CG_1576
REMARK  902  A    between atoms: CZ_1581  and  OH_1582
REMARK  903  A    between atoms: N_1583  and  CA_1584
REMARK  904  A    between atoms: CA_1584  and  C_1585
REMARK  905  A    between atoms: CA_1584  and  CB_1587
REMARK  906  A    between atoms: CB_1587  and  CG_1588
REMARK  907  A    between atoms: CG_1588  and  CD_1589
REMARK  908  A    between atoms: N_1592  and  CA_1593
REMARK  909  A    between atoms: CA_1593  and  C_1594
REMARK  910  A    between atoms: CA_1593  and  CB_1596
REMARK  911  A    between atoms: CB_1596  and  CG_1597
REMARK  912  A    between atoms: N_1603  and  CA_1604
REMARK  913  A    between atoms: CA_1604  and  C_1605
REMARK  914  A    between atoms: CA_1604  and  CB_1607
REMARK  915  A    between atoms: CB_1607  and  CG_1608
REMARK  916  A    between atoms: CG_1608  and  CD1_1609
REMARK  917  A    between atoms: CG_1608  and  CD2_1610
REMARK  918  A    between atoms: N_1611  and  CA_1612
REMARK  919  A    between atoms: CA_1612  and  C_1613
REMARK  920  A    between atoms: CA_1612  and  CB_1615
REMARK  921  A    between atoms: CB_1615  and  CG2_1616
REMARK  922  A    between atoms: CB_1615  and  CG1_1617
REMARK  923  A    between atoms: N_1618  and  CA_1619
REMARK  924  A    between atoms: CA_1619  and  C_1620
REMARK  925  A    between atoms: N_1622  and  C_1623
REMARK  926  A    between atoms: C_1623  and  C_1624
REMARK  927  A    between atoms: C_1623  and  C_1626
REMARK  928  A    between atoms: C_1626  and  C_1627
REMARK  929  A    between atoms: C_1627  and  C_1628
REMARK  930  A    between atoms: CA_1630  and  C_1631
REMARK  931  A    between atoms: CA_1637  and  C_1638
REMARK  932  A    between atoms: N_1643  and  CA_1644
REMARK  933  A    between atoms: CA_1644  and  C_1645
REMARK  934  A    between atoms: CA_1644  and  CB_1647
REMARK  935  A    between atoms: CB_1647  and  CG_1648
REMARK  936  A    between atoms: N_1654  and  CA_1655
REMARK  937  A    between atoms: CA_1655  and  C_1656
REMARK  938  A    between atoms: CA_1655  and  CB_1658
REMARK  939  A    between atoms: CB_1658  and  CG_1659
REMARK  940  A    between atoms: CG_1659  and  CD_1660
REMARK  941  A    between atoms: N_1663  and  CA_1664
REMARK  942  A    between atoms: CA_1664  and  C_1665
REMARK  943  A    between atoms: CA_1664  and  CB_1667
REMARK  944  A    between atoms: N_1668  and  CA_1669
REMARK  945  A    between atoms: CA_1669  and  C_1670
REMARK  946  A    between atoms: CA_1669  and  CB_1672
REMARK  947  A    between atoms: CB_1672  and  CG_1673
REMARK  948  A    between atoms: N_1676  and  CA_1677
REMARK  949  A    between atoms: CA_1677  and  C_1678
REMARK  950  A    between atoms: CA_1677  and  CB_1680
REMARK  951  A    between atoms: CB_1680  and  OG1_1681
REMARK  952  A    between atoms: CB_1680  and  CG2_1682
REMARK  953  A    between atoms: N_1683  and  CA_1684
REMARK  954  A    between atoms: CA_1684  and  C_1685
REMARK  955  A    between atoms: CA_1684  and  CB_1687
REMARK  956  A    between atoms: CB_1687  and  CG_1688
REMARK  957  A    between atoms: CZ_1693  and  OH_1694
REMARK  958  A    between atoms: N_1695  and  CA_1696
REMARK  959  A    between atoms: CA_1696  and  C_1697
REMARK  960  A    between atoms: CA_1696  and  CB_1699
REMARK  961  A    between atoms: CB_1699  and  CG_1700
REMARK  962  A    between atoms: CG_1700  and  CD_1701
REMARK  963  A    between atoms: N_1704  and  CA_1705
REMARK  964  A    between atoms: CA_1705  and  C_1706
REMARK  965  A    between atoms: CA_1705  and  CB_1708
REMARK  966  A    between atoms: CB_1708  and  CG_1709
REMARK  967  A    between atoms: CG_1709  and  CD_1710
REMARK  968  A    between atoms: N_1713  and  CA_1714
REMARK  969  A    between atoms: CA_1714  and  C_1715
REMARK  970  A    between atoms: CA_1714  and  CB_1717
REMARK  971  A    between atoms: CB_1717  and  OG1_1718
REMARK  972  A    between atoms: CB_1717  and  CG2_1719
REMARK  973  A    between atoms: N_1720  and  CA_1721
REMARK  974  A    between atoms: CA_1721  and  C_1722
REMARK  975  A    between atoms: CA_1721  and  CB_1724
REMARK  976  A    between atoms: CB_1724  and  CG_1725
REMARK  977  A    between atoms: CZ_1730  and  OH_1731
REMARK  978  A    between atoms: N_1732  and  CA_1733
REMARK  979  A    between atoms: CA_1733  and  C_1734
REMARK  980  A    between atoms: CA_1733  and  CB_1736
REMARK  981  A    between atoms: CB_1736  and  SG_1737
REMARK  982  A    between atoms: N_1738  and  C_1739
REMARK  983  A    between atoms: C_1739  and  C_1740
REMARK  984  A    between atoms: C_1739  and  C_1742
REMARK  985  A    between atoms: C_1742  and  C_1743
REMARK  986  A    between atoms: C_1743  and  C_1744
REMARK  987  A    between atoms: C_1744  and  N_1745
REMARK  988  A    between atoms: N_1746  and  CA_1747
REMARK  989  A    between atoms: CA_1747  and  C_1748
REMARK  990  A    between atoms: CA_1747  and  CB_1750
REMARK  991  A    between atoms: CB_1750  and  CG1_1751
REMARK  992  A    between atoms: CB_1750  and  CG2_1752
REMARK  993  A    between atoms: CG1_1751  and  CD1_1753
REMARK  994  A    between atoms: N_1754  and  C_1755
REMARK  995  A    between atoms: C_1755  and  C_1756
REMARK  996  A    between atoms: C_1755  and  C_1758
REMARK  997  A    between atoms: C_1758  and  O_1759
REMARK  998  A    between atoms: N_1760  and  C_1761
REMARK  999  A    between atoms: C_1761  and  C_1762
REMARK  1000  A    between atoms: C_1761  and  C_1764
REMARK  1001  A    between atoms: C_1764  and  C_1765
REMARK  1002  A    between atoms: C_1765  and  C_1766
REMARK  1003  A    between atoms: C_1766  and  N_1767
REMARK  1004  A    between atoms: N_1771  and  C_1772
REMARK  1005  A    between atoms: C_1772  and  C_1773
REMARK  1006  A    between atoms: C_1772  and  C_1775
REMARK  1007  A    between atoms: C_1775  and  C_1776
REMARK  1008  A    between atoms: C_1775  and  C_1777
REMARK  1009  A    between atoms: N_1778  and  C_1779
REMARK  1010  A    between atoms: C_1779  and  C_1780
REMARK  1011  A    between atoms: C_1779  and  C_1782
REMARK  1012  A    between atoms: C_1782  and  C_1783
REMARK  1013  A    between atoms: C_1783  and  C_1784
REMARK  1014  A    between atoms: N_1787  and  C_1788
REMARK  1015  A    between atoms: C_1788  and  C_1789
REMARK  1016  A    between atoms: C_1788  and  C_1791
REMARK  1017  A    between atoms: C_1791  and  C_1792
REMARK  1018  A    between atoms: N_1798  and  C_1799
REMARK  1019  A    between atoms: C_1799  and  C_1800
REMARK  1020  A    between atoms: C_1799  and  C_1802
REMARK  1021  A    between atoms: C_1802  and  O_1803
REMARK  1022  A    between atoms: C_1802  and  C_1804
REMARK  1023  A    between atoms: N_1805  and  C_1806
REMARK  1024  A    between atoms: C_1806  and  C_1807
REMARK  1025  A    between atoms: C_1806  and  C_1809
REMARK  1026  A    between atoms: C_1809  and  C_1810
REMARK  1027  A    between atoms: C_1817  and  C_1818
REMARK  1028  A    between atoms: N_1823  and  C_1824
REMARK  1029  A    between atoms: C_1824  and  C_1825
REMARK  1030  A    between atoms: C_1824  and  C_1827
REMARK  1031  A    between atoms: C_1827  and  C_1828
REMARK  1032  A    between atoms: N_1831  and  C_1832
REMARK  1033  A    between atoms: C_1832  and  C_1833
REMARK  1034  A    between atoms: C_1832  and  C_1835
REMARK  1035  A    between atoms: C_1835  and  C_1836
REMARK  1036  A    between atoms: N_1842  and  C_1843
REMARK  1037  A    between atoms: C_1843  and  C_1844
REMARK  1038  A    between atoms: C_1843  and  C_1846
REMARK  1039  A    between atoms: C_1846  and  C_1847
REMARK  1040  A    between atoms: C_1846  and  C_1848
REMARK  1041  A    between atoms: N_1849  and  C_1850
REMARK  1042  A    between atoms: C_1850  and  C_1851
REMARK  1043  A    between atoms: C_1850  and  C_1853
REMARK  1044  A    between atoms: C_1853  and  O_1854
REMARK  1045  A    between atoms: C_1853  and  C_1855
REMARK  1046  A    between atoms: N_1856  and  C_1857
REMARK  1047  A    between atoms: C_1858  and  C_1859
REMARK  1048  A    between atoms: C_1858  and  C_1861
REMARK  1049  A    between atoms: C_1862  and  C_1863
REMARK  1050  A    between atoms: C_1862  and  C_1864
REMARK  1051  A    between atoms: C_1863  and  C_1865
REMARK  1052  A    between atoms: N_1871  and  C_1872
REMARK  1053  A    between atoms: C_1872  and  C_1873
REMARK  1054  A    between atoms: N_1875  and  CA_1876
REMARK  1055  A    between atoms: CA_1876  and  C_1877
REMARK  1056  A    between atoms: CA_1876  and  CB_1879
REMARK  1057  A    between atoms: N_1880  and  CA_1881
REMARK  1058  A    between atoms: CA_1881  and  C_1882
REMARK  1059  A    between atoms: CA_1881  and  CB_1884
REMARK  1060  A    between atoms: CB_1884  and  CG_1885
REMARK  1061  A    between atoms: CG_1885  and  CD_1886
REMARK  1062  A    between atoms: CD_1886  and  NE_1887
REMARK  1063  A    between atoms: N_1891  and  CA_1892
REMARK  1064  A    between atoms: CA_1892  and  C_1893
REMARK  1065  A    between atoms: CA_1892  and  CB_1895
REMARK  1066  A    between atoms: CB_1895  and  CG_1896
REMARK  1067  A    between atoms: N_1899  and  CA_1900
REMARK  1068  A    between atoms: CA_1900  and  C_1901
REMARK  1069  A    between atoms: CA_1900  and  CB_1903
REMARK  1070  A    between atoms: CB_1903  and  CG_1904
REMARK  1071  A    between atoms: CG_1904  and  CD1_1905
REMARK  1072  A    between atoms: CG_1904  and  CD2_1906
REMARK  1073  A    between atoms: N_1907  and  CA_1908
REMARK  1074  A    between atoms: CA_1908  and  C_1909
REMARK  1075  A    between atoms: CA_1908  and  CB_1911
REMARK  1076  A    between atoms: CB_1911  and  CG1_1912
REMARK  1077  A    between atoms: CB_1911  and  CG2_1913
REMARK  1078  A    between atoms: CG1_1912  and  CD1_1914
REMARK  1079  A    between atoms: N_1915  and  CA_1916
REMARK  1080  A    between atoms: CA_1916  and  C_1917
REMARK  1081  A    between atoms: CA_1916  and  CB_1919
REMARK  1082  A    between atoms: CB_1919  and  OG_1920
REMARK  1083  A    between atoms: N_1921  and  CA_1922
REMARK  1084  A    between atoms: CA_1922  and  C_1923
REMARK  1085  A    between atoms: CA_1922  and  CB_1925
REMARK  1086  A    between atoms: CB_1925  and  CG_1926
REMARK  1087  A    between atoms: CG_1926  and  CD_1927
REMARK  1088  A    between atoms: CD_1927  and  NE_1928
REMARK  1089  A    between atoms: N_1932  and  CA_1933
REMARK  1090  A    between atoms: CA_1933  and  C_1934
REMARK  1091  A    between atoms: CA_1933  and  CB_1936
REMARK  1092  A    between atoms: CB_1936  and  CG_1937
REMARK  1093  A    between atoms: CG_1937  and  CD2_1938
REMARK  1094  A    between atoms: CG_1937  and  CD1_1939
REMARK  1095  A    between atoms: N_1940  and  CA_1941
REMARK  1096  A    between atoms: CA_1941  and  C_1942
REMARK  1097  A    between atoms: CA_1941  and  CB_1944
REMARK  1098  A    between atoms: CB_1944  and  CG_1945
REMARK  1099  A    between atoms: CG_1945  and  CD2_1946
REMARK  1100  A    between atoms: CG_1945  and  CD1_1947
REMARK  1101  A    between atoms: N_1948  and  CA_1949
REMARK  1102  A    between atoms: CA_1949  and  C_1950
REMARK  1103  A    between atoms: CA_1949  and  CB_1952
REMARK  1104  A    between atoms: CB_1952  and  CG_1953
REMARK  1105  A    between atoms: CG_1953  and  CD_1954
REMARK  1106  A    between atoms: CD_1954  and  CE_1955
REMARK  1107  A    between atoms: CE_1955  and  NZ_1956
REMARK  1108  A    between atoms: N_1957  and  CA_1958
REMARK  1109  A    between atoms: CA_1958  and  C_1959
REMARK  1110  A    between atoms: CA_1958  and  CB_1961
REMARK  1111  A    between atoms: CB_1961  and  CG_1962
REMARK  1112  A    between atoms: N_1967  and  CA_1968
REMARK  1113  A    between atoms: CA_1968  and  C_1969
REMARK  1114  A    between atoms: CA_1968  and  CB_1971
REMARK  1115  A    between atoms: CB_1971  and  CG_1972
REMARK  1116  A    between atoms: CA_1976  and  C_1977
REMARK  1117  A    between atoms: N_1982  and  C_1983
REMARK  1118  A    between atoms: C_1983  and  C_1984
REMARK  1119  A    between atoms: C_1983  and  C_1986
REMARK  1120  A    between atoms: C_1986  and  O_1987
REMARK  1121  A    between atoms: N_1988  and  C_1989
REMARK  1122  A    between atoms: C_1989  and  C_1990
REMARK  1123  A    between atoms: C_1989  and  C_1992
REMARK  1124  A    between atoms: C_1992  and  C_1993
REMARK  1125  A    between atoms: C_1993  and  C_1994
REMARK  1126  A    between atoms: N_1997  and  C_1998
REMARK  1127  A    between atoms: C_1998  and  C_1999
REMARK  1128  A    between atoms: C_1998  and  C_2001
REMARK  1129  A    between atoms: C_2001  and  C_2002
REMARK  1130  A    between atoms: C_2002  and  C_2003
REMARK  1131  A    between atoms: C_2003  and  N_2004
REMARK  1132  A    between atoms: C_2009  and  C_2010
REMARK  1133  A    between atoms: N_2015  and  C_2017
REMARK  1134  A    between atoms: C_2016  and  C_2018
REMARK  1135  A    between atoms: C_2016  and  C_2021
REMARK  1136  A    between atoms: C_2021  and  C_2022
REMARK  1137  A    between atoms: C_2022  and  C_2023
REMARK  1138  A    between atoms: C_2023  and  S_2024
REMARK  1139  A    between atoms: C_2023  and  S_2025
REMARK  1140  A    between atoms: S_2024  and  C_2026
REMARK  1141  A    between atoms: S_2025  and  C_2027
REMARK  1142  A    between atoms: N_2028  and  CA_2029
REMARK  1143  A    between atoms: CA_2029  and  C_2030
REMARK  1144  A    between atoms: CA_2029  and  CB_2032
REMARK  1145  A    between atoms: CB_2032  and  CG_2033
REMARK  1146  A    between atoms: CG_2033  and  CD1_2034
REMARK  1147  A    between atoms: CG_2033  and  CD2_2035
REMARK  1148  A    between atoms: N_2036  and  CA_2037
REMARK  1149  A    between atoms: CA_2037  and  C_2038
REMARK  1150  A    between atoms: CA_2037  and  CB_2040
REMARK  1151  A    between atoms: N_2041  and  CA_2042
REMARK  1152  A    between atoms: CA_2042  and  C_2043
REMARK  1153  A    between atoms: CA_2042  and  CB_2045
REMARK  1154  A    between atoms: CB_2045  and  CG_2046
REMARK  1155  A    between atoms: CG_2046  and  CD_2047
REMARK  1156  A    between atoms: N_2050  and  CA_2051
REMARK  1157  A    between atoms: CA_2051  and  C_2052
REMARK  1158  A    between atoms: CA_2051  and  CB_2054
REMARK  1159  A    between atoms: CB_2054  and  CG2_2055
REMARK  1160  A    between atoms: CB_2054  and  CG1_2056
REMARK  1161  A    between atoms: N_2057  and  CA_2058
REMARK  1162  A    between atoms: CA_2058  and  C_2059
REMARK  1163  A    between atoms: CA_2058  and  CB_2061
REMARK  1164  A    between atoms: CB_2061  and  CG_2062
REMARK  1165  A    between atoms: CG_2062  and  CD1_2063
REMARK  1166  A    between atoms: CG_2062  and  CD2_2064
REMARK  1167  A    between atoms: N_2065  and  CA_2066
REMARK  1168  A    between atoms: CA_2066  and  C_2067
REMARK  1169  A    between atoms: CA_2066  and  CB_2069
REMARK  1170  A    between atoms: CB_2069  and  CG_2070
REMARK  1171  A    between atoms: CG_2070  and  CD_2071
REMARK  1172  A    between atoms: N_2074  and  CA_2075
REMARK  1173  A    between atoms: CA_2075  and  C_2076
REMARK  1174  A    between atoms: CA_2075  and  CB_2078
REMARK  1175  A    between atoms: CB_2078  and  CG_2079
REMARK  1176  A    between atoms: CA_2085  and  C_2086
REMARK  1177  A    between atoms: N_2091  and  CA_2092
REMARK  1178  A    between atoms: CA_2092  and  C_2093
REMARK  1179  A    between atoms: CA_2092  and  CB_2095
REMARK  1180  A    between atoms: CB_2095  and  CG_2096
REMARK  1181  A    between atoms: N_2105  and  CA_2106
REMARK  1182  A    between atoms: CA_2106  and  C_2107
REMARK  1183  A    between atoms: CA_2106  and  CB_2109
REMARK  1184  A    between atoms: CB_2109  and  CG1_2110
REMARK  1185  A    between atoms: CB_2109  and  CG2_2111
REMARK  1186  A    between atoms: CG1_2110  and  CD1_2112
REMARK  1187  A    between atoms: N_2113  and  CA_2114
REMARK  1188  A    between atoms: CA_2114  and  C_2115
REMARK  1189  A    between atoms: CA_2114  and  CB_2117
REMARK  1190  A    between atoms: CB_2117  and  OG1_2118
REMARK  1191  A    between atoms: CB_2117  and  CG2_2119
REMARK  1192  A    between atoms: N_2120  and  CA_2121
REMARK  1193  A    between atoms: CA_2121  and  C_2122
REMARK  1194  A    between atoms: CA_2121  and  CB_2124
REMARK  1195  A    between atoms: N_2125  and  CA_2126
REMARK  1196  A    between atoms: CA_2126  and  C_2127
REMARK  1197  A    between atoms: CA_2126  and  CB_2129
REMARK  1198  A    between atoms: CB_2129  and  CG_2130
REMARK  1199  A    between atoms: N_2133  and  CA_2134
REMARK  1200  A    between atoms: CA_2134  and  C_2135
REMARK  1201  A    between atoms: CA_2134  and  CB_2137
REMARK  1202  A    between atoms: CB_2137  and  OG_2138
REMARK  1203  A    between atoms: N_2139  and  CA_2140
REMARK  1204  A    between atoms: CA_2140  and  C_2141
REMARK  1205  A    between atoms: CA_2140  and  CB_2143
REMARK  1206  A    between atoms: CB_2143  and  OG_2144
REMARK  1207  A    between atoms: N_2145  and  C_2146
REMARK  1208  A    between atoms: C_2146  and  C_2147
REMARK  1209  A    between atoms: C_2146  and  C_2149
REMARK  1210  A    between atoms: C_2149  and  C_2150
REMARK  1211  A    between atoms: N_2151  and  CA_2152
REMARK  1212  A    between atoms: CA_2152  and  C_2153
REMARK  1213  A    between atoms: CA_2152  and  CB_2155
REMARK  1214  A    between atoms: CB_2155  and  OG_2156
REMARK  1215  A    between atoms: N_2157  and  CA_2158
REMARK  1216  A    between atoms: CA_2158  and  C_2159
REMARK  1217  A    between atoms: CA_2158  and  CB_2161
REMARK  1218  A    between atoms: CB_2161  and  CG_2162
REMARK  1219  A    between atoms: CG_2162  and  CD_2163
REMARK  1220  A    between atoms: CA_2167  and  C_2168
REMARK  1221  A    between atoms: CA_2174  and  C_2175
REMARK  1222  A    between atoms: N_2180  and  CA_2181
REMARK  1223  A    between atoms: CA_2181  and  C_2182
REMARK  1224  A    between atoms: CA_2181  and  CB_2184
REMARK  1225  A    between atoms: CB_2184  and  OG_2185
REMARK  1226  A    between atoms: N_2186  and  CA_2187
REMARK  1227  A    between atoms: CA_2187  and  C_2188
REMARK  1228  A    between atoms: CA_2187  and  CB_2190
REMARK  1229  A    between atoms: CB_2190  and  CG_2191
REMARK  1230  A    between atoms: N_2200  and  CA_2201
REMARK  1231  A    between atoms: CA_2201  and  C_2202
REMARK  1232  A    between atoms: CA_2201  and  CB_2204
REMARK  1233  A    between atoms: CB_2204  and  CG2_2205
REMARK  1234  A    between atoms: CB_2204  and  CG1_2206
REMARK  1235  A    between atoms: N_2207  and  CA_2208
REMARK  1236  A    between atoms: CA_2208  and  C_2209
REMARK  1237  A    between atoms: CA_2208  and  CB_2211
REMARK  1238  A    between atoms: CB_2211  and  OG1_2212
REMARK  1239  A    between atoms: CB_2211  and  CG2_2213
REMARK  1240  A    between atoms: N_2214  and  CA_2215
REMARK  1241  A    between atoms: CA_2215  and  C_2216
REMARK  1242  A    between atoms: CA_2215  and  CB_2218
REMARK  1243  A    between atoms: CB_2218  and  CG_2219
REMARK  1244  A    between atoms: CG_2219  and  CD_2220
REMARK  1245  A    between atoms: N_2223  and  CA_2224
REMARK  1246  A    between atoms: CA_2224  and  C_2225
REMARK  1247  A    between atoms: CA_2224  and  CB_2227
REMARK  1248  A    between atoms: CB_2227  and  CG_2228
REMARK  1249  A    between atoms: CG_2228  and  SD_2229
REMARK  1250  A    between atoms: SD_2229  and  CE_2230
REMARK  1251  A    between atoms: N_2231  and  CA_2232
REMARK  1252  A    between atoms: CA_2232  and  C_2233
REMARK  1253  A    between atoms: CA_2232  and  CB_2235
REMARK  1254  A    between atoms: CB_2235  and  CG_2236
REMARK  1255  A    between atoms: CG_2236  and  CD1_2237
REMARK  1256  A    between atoms: CG_2236  and  CD2_2238
REMARK  1257  A    between atoms: N_2239  and  CA_2240
REMARK  1258  A    between atoms: CA_2240  and  C_2241
REMARK  1259  A    between atoms: CA_2240  and  CB_2243
REMARK  1260  A    between atoms: CB_2243  and  CG_2244
REMARK  1261  A    between atoms: CG_2244  and  CD1_2245
REMARK  1262  A    between atoms: CG_2244  and  CD2_2246
REMARK  1263  A    between atoms: N_2247  and  CA_2248
REMARK  1264  A    between atoms: CA_2248  and  C_2249
REMARK  1265  A    between atoms: CA_2248  and  CB_2251
REMARK  1266  A    between atoms: CB_2251  and  CG_2252
REMARK  1267  A    between atoms: CG_2252  and  CD_2253
REMARK  1268  A    between atoms: N_2256  and  CA_2257
REMARK  1269  A    between atoms: CA_2257  and  C_2258
REMARK  1270  A    between atoms: CA_2257  and  CB_2260
REMARK  1271  A    between atoms: CB_2260  and  CG_2261
REMARK  1272  A    between atoms: CG_2261  and  CD_2262
REMARK  1273  A    between atoms: CD_2262  and  CE_2263
REMARK  1274  A    between atoms: CE_2263  and  NZ_2264
REMARK  1275  A    between atoms: N_2265  and  C_2266
REMARK  1276  A    between atoms: C_2266  and  C_2267
REMARK  1277  A    between atoms: C_2266  and  C_2269
REMARK  1278  A    between atoms: C_2269  and  C_2270
REMARK  1279  A    between atoms: N_2271  and  CA_2272
REMARK  1280  A    between atoms: CA_2272  and  C_2273
REMARK  1281  A    between atoms: CA_2272  and  CB_2275
REMARK  1282  A    between atoms: CB_2275  and  CG_2276
REMARK  1283  A    between atoms: CG_2276  and  CD2_2277
REMARK  1284  A    between atoms: CG_2276  and  CD1_2278
REMARK  1285  A    between atoms: N_2279  and  CA_2280
REMARK  1286  A    between atoms: CA_2280  and  C_2281
REMARK  1287  A    between atoms: CA_2280  and  CB_2283
REMARK  1288  A    between atoms: CB_2283  and  CG_2284
REMARK  1289  A    between atoms: N_2293  and  CA_2294
REMARK  1290  A    between atoms: CA_2294  and  C_2295
REMARK                            x       y       z     vdW  Elec       q    Type
REMARK                         _______ _______ _______ _____ _____    ______ ____
ROOT
ATOM      1  C   PRO L  27     -47.996  38.773  19.110  0.00  0.00    +0.237 C 
ATOM      2  O   PRO L  27     -48.264  38.280  20.222  0.00  0.00    -0.274 OA
ATOM      3  N   PRO L  28     -48.937  39.361  18.369  0.00  0.00    -0.288 N 
ATOM      4  CA  PRO L  28     -50.213  39.730  18.996  0.00  0.00    +0.162 C 
ATOM      5  CB  PRO L  28     -50.871  40.658  17.965  0.00  0.00    +0.033 C 
ATOM      6  CG  PRO L  28     -50.226  40.291  16.649  0.00  0.00    +0.021 C 
ATOM      7  CD  PRO L  28     -48.812  39.872  16.988  0.00  0.00    +0.109 C 
ENDROOT
BRANCH   1  11
ATOM      8  C   UNK L  26     -45.394  39.616  20.518  0.00  0.00    +0.237 C 
ATOM      9  O   UNK L  26     -45.897  40.734  20.325  0.00  0.00    -0.274 OA
ATOM     10  N   PRO L  27     -45.631  38.595  19.700  0.00  0.00    -0.288 N 
ATOM     11  CA  PRO L  27     -46.569  38.756  18.586  0.00  0.00    +0.162 C 
ATOM     12  CB  PRO L  27     -46.289  37.527  17.707  0.00  0.00    +0.033 C 
ATOM     13  CG  PRO L  27     -45.822  36.500  18.652  0.00  0.00    +0.021 C 
ATOM     14  CD  PRO L  27     -45.058  37.236  19.742  0.00  0.00    +0.109 C 
BRANCH   8  15
ATOM     15  C   UNK L  26     -44.512  39.403  21.739  0.00  0.00    +0.159 C 
BRANCH  15  18
ATOM     16  C   GLY L  25     -42.456  40.790  22.185  0.00  0.00    +0.231 C 
ATOM     17  O   GLY L  25     -41.697  39.830  22.364  0.00  0.00    -0.274 OA
ATOM     18  N   UNK L  26     -43.740  40.650  21.853  0.00  0.00    -0.303 N 
ATOM     19  H   UNK L  26     -44.231  41.482  21.661  0.00  0.00    +0.149 HD
BRANCH  16  20
ATOM     20  CA  GLY L  25     -41.919  42.200  22.336  0.00  0.00    +0.200 C 
BRANCH  20  23
ATOM     21  C   VAL L  24     -43.515  43.987  22.795  0.00  0.00    +0.234 C 
ATOM     22  O   VAL L  24     -43.379  43.842  24.011  0.00  0.00    -0.274 OA
ATOM     23  N   GLY L  25     -42.847  43.239  21.918  0.00  0.00    -0.305 N 
ATOM     24  H   GLY L  25     -42.986  43.395  20.956  0.00  0.00    +0.149 HD
BRANCH  21  25
ATOM     25  CA  VAL L  24     -44.461  45.050  22.250  0.00  0.00    +0.161 C 
BRANCH  25  28
ATOM     26  C   LEU L  23     -43.406  46.864  20.992  0.00  0.00    +0.234 C 
ATOM     27  O   LEU L  23     -43.161  47.514  22.018  0.00  0.00    -0.274 OA
ATOM     28  N   VAL L  24     -43.950  45.650  21.029  0.00  0.00    -0.302 N 
ATOM     29  H   VAL L  24     -44.009  45.135  20.192  0.00  0.00    +0.150 HD
BRANCH  26  30
ATOM     30  CA  LEU L  23     -43.105  47.465  19.622  0.00  0.00    +0.159 C 
BRANCH  30  33
ATOM     31  C   PHE L  22     -41.598  45.905  18.544  0.00  0.00    +0.234 C 
ATOM     32  O   PHE L  22     -40.711  46.192  19.358  0.00  0.00    -0.274 OA
ATOM     33  N   LEU L  23     -42.816  46.449  18.609  0.00  0.00    -0.302 N 
ATOM     34  H   LEU L  23     -43.517  46.168  17.978  0.00  0.00    +0.150 HD
BRANCH  31  35
ATOM     35  CA  PHE L  22     -41.326  44.922  17.409  0.00  0.00    +0.163 C 
BRANCH  35  38
ATOM     36  C   GLU L  21     -42.859  43.202  18.207  0.00  0.00    +0.234 C 
ATOM     37  O   GLU L  21     -42.293  43.172  19.304  0.00  0.00    -0.274 OA
ATOM     38  N   PHE L  22     -42.458  44.013  17.215  0.00  0.00    -0.302 N 
ATOM     39  H   PHE L  22     -42.929  43.997  16.350  0.00  0.00    +0.150 HD
BRANCH  36  40
ATOM     40  CA  GLU L  21     -44.065  42.306  17.944  0.00  0.00    +0.159 C 
BRANCH  40  43
ATOM     41  C   TYR L  20     -45.635  44.137  17.659  0.00  0.00    +0.234 C 
ATOM     42  O   TYR L  20     -45.282  44.637  18.732  0.00  0.00    -0.274 OA
ATOM     43  N   GLU L  21     -45.090  43.011  17.181  0.00  0.00    -0.302 N 
ATOM     44  H   GLU L  21     -45.382  42.657  16.310  0.00  0.00    +0.150 HD
BRANCH  41  45
ATOM     45  CA  TYR L  20     -46.726  44.788  16.816  0.00  0.00    +0.163 C 
BRANCH  45  48
ATOM     46  C   CYS L  19     -45.247  45.778  15.159  0.00  0.00    +0.235 C 
ATOM     47  O   CYS L  19     -44.650  46.431  16.027  0.00  0.00    -0.274 OA
ATOM     48  N   TYR L  20     -46.270  44.973  15.445  0.00  0.00    -0.302 N 
ATOM     49  H   TYR L  20     -46.726  44.494  14.716  0.00  0.00    +0.150 HD
BRANCH  46  50
ATOM     50  CA  CYS L  19     -44.815  45.834  13.699  0.00  0.00    +0.168 C 
BRANCH  50  53
ATOM     51  C   LEU L  18     -43.995  43.564  13.672  0.00  0.00    +0.234 C 
ATOM     52  O   LEU L  18     -43.278  43.807  14.648  0.00  0.00    -0.274 OA
ATOM     53  N   CYS L  19     -44.775  44.494  13.122  0.00  0.00    -0.302 N 
ATOM     54  H   CYS L  19     -45.321  44.279  12.331  0.00  0.00    +0.150 HD
BRANCH  51  55
ATOM     55  CA  LEU L  18     -43.967  42.190  13.009  0.00  0.00    +0.159 C 
BRANCH  55  58
ATOM     56  C   VAL L  17     -46.231  41.541  13.631  0.00  0.00    +0.234 C 
ATOM     57  O   VAL L  17     -45.982  41.758  14.825  0.00  0.00    -0.274 OA
ATOM     58  N   LEU L  18     -45.315  41.719  12.678  0.00  0.00    -0.302 N 
ATOM     59  H   LEU L  18     -45.547  41.532  11.740  0.00  0.00    +0.150 HD
BRANCH  56  60
ATOM     60  CA  VAL L  17     -47.607  41.064  13.181  0.00  0.00    +0.161 C 
BRANCH  60  63
ATOM     61  C   GLY L  16     -48.206  43.172  12.146  0.00  0.00    +0.231 C 
ATOM     62  O   GLY L  16     -48.035  43.758  13.222  0.00  0.00    -0.274 OA
ATOM     63  N   VAL L  17     -48.063  41.851  12.034  0.00  0.00    -0.302 N 
ATOM     64  H   VAL L  17     -48.264  41.405  11.180  0.00  0.00    +0.150 HD
BRANCH  61  65
ATOM     65  CA  GLY L  16     -48.604  43.943  10.892  0.00  0.00    +0.200 C 
BRANCH  65  68
ATOM     66  C   LEU L  15     -46.604  43.586   9.561  0.00  0.00    +0.234 C 
ATOM     67  O   LEU L  15     -45.922  44.193  10.394  0.00  0.00    -0.274 OA
ATOM     68  N   GLY L  16     -47.935  43.464   9.684  0.00  0.00    -0.305 N 
ATOM     69  H   GLY L  16     -48.461  43.052   8.961  0.00  0.00    +0.149 HD
BRANCH  66  70
ATOM     70  CA  LEU L  15     -45.940  42.942   8.342  0.00  0.00    +0.159 C 
BRANCH  70  73
ATOM     71  C   SER L  14     -46.509  40.670   8.927  0.00  0.00    +0.236 C 
ATOM     72  O   SER L  14     -45.935  40.801  10.014  0.00  0.00    -0.274 OA
ATOM     73  N   LEU L  15     -46.540  41.647   8.026  0.00  0.00    -0.302 N 
ATOM     74  H   LEU L  15     -46.965  41.499   7.150  0.00  0.00    +0.150 HD
BRANCH  71  75
ATOM     75  CA  SER L  14     -47.236  39.377   8.576  0.00  0.00    +0.184 C 
BRANCH  75  78
ATOM     76  C   TRP L  13     -49.403  40.447   8.346  0.00  0.00    +0.234 C 
ATOM     77  O   TRP L  13     -49.288  40.943   9.469  0.00  0.00    -0.274 OA
ATOM     78  N   SER L  14     -48.458  39.650   7.824  0.00  0.00    -0.301 N 
ATOM     79  H   SER L  14     -48.588  39.249   6.934  0.00  0.00    +0.150 HD
BRANCH  76  80
ATOM     80  CA  TRP L  13     -50.652  40.700   7.506  0.00  0.00    +0.163 C 
BRANCH  80  83
ATOM     81  C   LEU L  12     -49.547  42.242   5.987  0.00  0.00    +0.234 C 
ATOM     82  O   LEU L  12     -49.222  42.976   6.924  0.00  0.00    -0.274 OA
ATOM     83  N   TRP L  13     -50.295  41.151   6.163  0.00  0.00    -0.302 N 
ATOM     84  H   TRP L  13     -50.610  40.645   5.380  0.00  0.00    +0.150 HD
BRANCH  81  85
ATOM     85  CA  LEU L  12     -49.087  42.551   4.564  0.00  0.00    +0.159 C 
BRANCH  85  88
ATOM     86  C   ASP L  11     -47.540  40.677   4.289  0.00  0.00    +0.234 C 
ATOM     87  O   ASP L  11     -46.811  41.092   5.198  0.00  0.00    -0.274 OA
ATOM     88  N   LEU L  12     -48.635  41.331   3.890  0.00  0.00    -0.302 N 
ATOM     89  H   LEU L  12     -49.150  40.985   3.126  0.00  0.00    +0.150 HD
BRANCH  86  90
ATOM     90  CA  ASP L  11     -47.187  39.378   3.558  0.00  0.00    +0.164 C 
BRANCH  90  93
ATOM     91  C   VAL L  10     -49.287  38.194   3.879  0.00  0.00    +0.234 C 
ATOM     92  O   VAL L  10     -49.144  38.272   5.101  0.00  0.00    -0.274 OA
ATOM     93  N   ASP L  11     -48.387  38.716   3.029  0.00  0.00    -0.302 N 
ATOM     94  H   ASP L  11     -48.531  38.655   2.057  0.00  0.00    +0.150 HD
BRANCH  91  95
ATOM     95  CA  VAL L  10     -50.498  37.478   3.295  0.00  0.00    +0.161 C 
BRANCH  95  98
ATOM     96  C   LYS L   9     -51.368  39.425   2.198  0.00  0.00    +0.234 C 
ATOM     97  O   LYS L   9     -51.436  39.999   3.296  0.00  0.00    -0.274 OA
ATOM     98  N   VAL L  10     -50.976  38.155   2.092  0.00  0.00    -0.302 N 
ATOM     99  H   VAL L  10     -51.008  37.686   1.227  0.00  0.00    +0.150 HD
BRANCH  96 100
ATOM    100  CA  LYS L   9     -51.740  40.182   0.935  0.00  0.00    +0.159 C 
BRANCH 100 103
ATOM    101  C   GLU L   8     -49.981  39.365  -0.529  0.00  0.00    +0.234 C 
ATOM    102  O   GLU L   8     -49.118  39.799   0.236  0.00  0.00    -0.274 OA
ATOM    103  N   LYS L   9     -51.289  39.509  -0.282  0.00  0.00    -0.302 N 
ATOM    104  H   LYS L   9     -51.950  39.160  -0.923  0.00  0.00    +0.150 HD
BRANCH 101 105
ATOM    105  CA  GLU L   8     -49.553  38.636  -1.797  0.00  0.00    +0.159 C 
BRANCH 105 108
ATOM    106  C   ASP L   7     -51.197  36.870  -1.725  0.00  0.00    +0.234 C 
ATOM    107  O   ASP L   7     -50.917  36.620  -0.549  0.00  0.00    -0.274 OA
ATOM    108  N   GLU L   8     -50.638  37.874  -2.399  0.00  0.00    -0.302 N 
ATOM    109  H   GLU L   8     -50.958  38.100  -3.302  0.00  0.00    +0.150 HD
BRANCH 106 110
ATOM    110  CA  ASP L   7     -52.220  36.032  -2.474  0.00  0.00    +0.164 C 
BRANCH 110 113
ATOM    111  C   HIS L   6     -53.461  34.073  -1.760  0.00  0.00    +0.234 C 
ATOM    112  O   HIS L   6     -53.266  33.502  -2.837  0.00  0.00    -0.274 OA
ATOM    113  N   ASP L   7     -52.966  35.269  -1.484  0.00  0.00    -0.302 N 
ATOM    114  H   ASP L   7     -53.106  35.652  -0.588  0.00  0.00    +0.150 HD
BRANCH 111 115
ATOM    115  CA  HIS L   6     -54.332  33.461  -0.671  0.00  0.00    +0.165 C 
BRANCH 115 118
ATOM    116  C   UNK L   5     -56.249  32.002  -0.782  0.00  0.00    +0.234 C 
ATOM    117  O   UNK L   5     -56.849  32.706   0.034  0.00  0.00    -0.274 OA
ATOM    118  N   HIS L   6     -55.021  32.289  -1.195  0.00  0.00    -0.302 N 
ATOM    119  H   HIS L   6     -54.576  31.710  -1.855  0.00  0.00    +0.150 HD
BRANCH 116 120
ATOM    120  C   UNK L   5     -56.868  30.722  -1.340  0.00  0.00    +0.160 C 
BRANCH 120 123
ATOM    121  C   ARG L   4     -57.201  29.607   0.759  0.00  0.00    +0.234 C 
ATOM    122  O   ARG L   4     -55.980  29.630   0.954  0.00  0.00    -0.274 OA
ATOM    123  N   UNK L   5     -57.743  30.123  -0.342  0.00  0.00    -0.302 N 
ATOM    124  H   UNK L   5     -58.718  30.100  -0.479  0.00  0.00    +0.150 HD
BRANCH 121 125
ATOM    125  CA  ARG L   4     -58.162  29.007   1.783  0.00  0.00    +0.159 C 
BRANCH 125 128
ATOM    126  C   GLY L   3     -56.884  27.194   2.777  0.00  0.00    +0.231 C 
ATOM    127  O   GLY L   3     -57.098  26.467   1.802  0.00  0.00    -0.274 OA
ATOM    128  N   ARG L   4     -57.406  28.413   2.876  0.00  0.00    -0.303 N 
ATOM    129  H   ARG L   4     -57.278  28.925   3.707  0.00  0.00    +0.149 HD
BRANCH 126 130
ATOM    130  CA  GLY L   3     -56.005  26.695   3.905  0.00  0.00    +0.200 C 
BRANCH 130 133
ATOM    131  C   GLU L   2     -57.438  27.250   5.789  0.00  0.00    +0.234 C 
ATOM    132  O   GLU L   2     -58.377  26.610   5.316  0.00  0.00    -0.274 OA
ATOM    133  N   GLY L   3     -56.247  27.316   5.195  0.00  0.00    -0.305 N 
ATOM    134  H   GLY L   3     -55.513  27.797   5.642  0.00  0.00    +0.149 HD
BRANCH 131 135
ATOM    135  CA  GLU L   2     -57.612  27.962   7.127  0.00  0.00    +0.159 C 
BRANCH 135 138
ATOM    136  C   ILE L   1     -55.433  28.102   8.174  0.00  0.00    +0.262 C 
ATOM    137  O   ILE L   1     -55.506  26.938   8.577  0.00  0.00    -0.270 OA
ATOM    138  N   GLU L   2     -56.421  28.683   7.515  0.00  0.00    -0.299 N 
ATOM    139  H   GLU L   2     -56.343  29.636   7.281  0.00  0.00    +0.150 HD
BRANCH 136 140
ATOM    140  CA  ILE L   1     -54.178  28.912   8.416  0.00  0.00    +0.151 C 
BRANCH 140 141
ATOM    141  N   ILE L   1     -54.038  29.979   7.426  0.00  0.00    +0.228 N 
ATOM    142  H   ILE L   1     -54.049  29.577   6.489  0.00  0.00    +0.200 HD
ATOM    143  H   ILE L   1     -53.156  30.468   7.576  0.00  0.00    +0.200 HD
ATOM    144  H   ILE L   1     -54.812  30.636   7.523  0.00  0.00    +0.200 HD
ENDBRANCH 140 141
BRANCH 140 145
ATOM    145  CB  ILE L   1     -54.171  29.438   9.863  0.00  0.00    +0.043 C 
ATOM    146  CG2 ILE L   1     -52.928  30.296  10.112  0.00  0.00    +0.014 C 
BRANCH 145 147
ATOM    147  CG1 ILE L   1     -55.476  30.170  10.197  0.00  0.00    +0.006 C 
ATOM    148  CD1 ILE L   1     -55.540  30.663  11.643  0.00  0.00    +0.004 C 
ENDBRANCH 145 147
ENDBRANCH 140 145
ENDBRANCH 136 140
ENDBRANCH 135 138
BRANCH 135 149
ATOM    149  CB  GLU L   2     -58.786  28.932   7.089  0.00  0.00    +0.037 C 
BRANCH 149 150
ATOM    150  CG  GLU L   2     -59.268  29.331   8.480  0.00  0.00    +0.054 C 
BRANCH 150 151
ATOM    151  CD  GLU L   2     -60.212  30.519   8.441  0.00  0.00    +0.042 C 
ATOM    152  OE1 GLU L   2     -60.586  30.940   7.327  0.00  0.00    -0.550 OA
ATOM    153  OE2 GLU L   2     -60.599  31.022   9.516  0.00  0.00    -0.550 OA
ENDBRANCH 150 151
ENDBRANCH 149 150
ENDBRANCH 135 149
ENDBRANCH 131 135
ENDBRANCH 130 133
ENDBRANCH 126 130
ENDBRANCH 125 128
BRANCH 125 154
ATOM    154  CB  ARG L   4     -59.120  30.058   2.318  0.00  0.00    +0.035 C 
BRANCH 154 155
ATOM    155  CG  ARG L   4     -60.123  29.509   3.311  0.00  0.00    +0.039 C 
BRANCH 155 156
ATOM    156  CD  ARG L   4     -61.178  30.542   3.678  0.00  0.00    +0.196 C 
BRANCH 156 157
ATOM    157  NE  ARG L   4     -60.750  31.353   4.813  0.00  0.00    -0.279 N 
ATOM    158  CZ  ARG L   4     -60.526  32.661   4.761  0.00  0.00    +0.341 C 
ATOM    159  NH1 ARG L   4     -60.732  33.352   3.648  0.00  0.00    -0.292 N 
ATOM    160  NH2 ARG L   4     -60.090  33.293   5.854  0.00  0.00    -0.292 N 
ATOM    161  H   ARG L   4     -60.618  30.899   5.677  0.00  0.00    +0.258 HD
ATOM    162  H   ARG L   4     -61.053  32.895   2.837  0.00  0.00    +0.255 HD
ATOM    163  H   ARG L   4     -60.564  34.322   3.632  0.00  0.00    +0.255 HD
ATOM    164  H   ARG L   4     -59.920  34.262   5.827  0.00  0.00    +0.255 HD
ATOM    165  H   ARG L   4     -59.938  32.789   6.686  0.00  0.00    +0.255 HD
ENDBRANCH 156 157
ENDBRANCH 155 156
ENDBRANCH 154 155
ENDBRANCH 125 154
ENDBRANCH 121 125
ENDBRANCH 120 123
BRANCH 120 166
ATOM    166  C   UNK L   5     -57.636  31.002  -2.629  0.00  0.00    +0.042 C 
BRANCH 166 167
ATOM    167  C   UNK L   5     -57.798  29.768  -3.514  0.00  0.00    +0.068 C 
BRANCH 167 168
ATOM    168  S   UNK L   5     -58.658  30.140  -5.039  0.00  0.00    -0.178 S 
ATOM    169  H   UNK L   5     -57.944  31.052  -5.751  0.00  0.00    +0.102 HD
ENDBRANCH 167 168
ENDBRANCH 166 167
ENDBRANCH 120 166
ENDBRANCH 116 120
ENDBRANCH 115 118
BRANCH 115 170
ATOM    170  CB  HIS L   6     -53.518  33.126   0.586  0.00  0.00    +0.086 C 
BRANCH 170 171
ATOM    171  CG  HIS L   6     -52.361  32.205   0.346  0.00  0.00    +0.038 A 
ATOM    172  ND1 HIS L   6     -52.430  30.847   0.580  0.00  0.00    -0.348 N 
ATOM    173  CD2 HIS L   6     -51.102  32.449  -0.091  0.00  0.00    +0.133 A 
ATOM    174  CE1 HIS L   6     -51.267  30.291   0.282  0.00  0.00    +0.196 A 
ATOM    175  NE2 HIS L   6     -50.441  31.242  -0.119  0.00  0.00    -0.244 NA
ATOM    176  H   HIS L   6     -53.221  30.367   0.916  0.00  0.00    +0.166 HD
ENDBRANCH 170 171
ENDBRANCH 115 170
ENDBRANCH 111 115
ENDBRANCH 110 113
BRANCH 110 177
ATOM    177  CB  ASP L   7     -53.166  36.872  -3.362  0.00  0.00    +0.083 C 
BRANCH 177 178
ATOM    178  CG  ASP L   7     -53.997  37.903  -2.573  0.00  0.00    +0.044 C 
ATOM    179  OD2 ASP L   7     -53.709  38.165  -1.388  0.00  0.00    -0.550 OA
ATOM    180  OD1 ASP L   7     -54.956  38.460  -3.158  0.00  0.00    -0.550 OA
ENDBRANCH 177 178
ENDBRANCH 110 177
ENDBRANCH 106 110
ENDBRANCH 105 108
BRANCH 105 181
ATOM    181  CB  GLU L   8     -48.988  39.613  -2.831  0.00  0.00    +0.037 C 
BRANCH 181 182
ATOM    182  CG  GLU L   8     -49.968  40.698  -3.212  0.00  0.00    +0.054 C 
BRANCH 182 183
ATOM    183  CD  GLU L   8     -49.588  41.419  -4.502  0.00  0.00    +0.042 C 
ATOM    184  OE2 GLU L   8     -49.864  42.638  -4.604  0.00  0.00    -0.550 OA
ATOM    185  OE1 GLU L   8     -48.981  40.781  -5.399  0.00  0.00    -0.550 OA
ENDBRANCH 182 183
ENDBRANCH 181 182
ENDBRANCH 105 181
ENDBRANCH 101 105
ENDBRANCH 100 103
BRANCH 100 186
ATOM    186  CB  LYS L   9     -53.263  40.411   0.882  0.00  0.00    +0.032 C 
BRANCH 186 187
ATOM    187  CG  LYS L   9     -53.700  41.508  -0.113  0.00  0.00    +0.007 C 
BRANCH 187 188
ATOM    188  CD  LYS L   9     -53.172  42.897   0.331  0.00  0.00    +0.051 C 
BRANCH 188 189
ATOM    189  CE  LYS L   9     -54.059  44.047  -0.190  0.00  0.00    +0.127 C 
BRANCH 189 190
ATOM    190  NZ  LYS L   9     -53.292  45.327  -0.281  0.00  0.00    +0.219 N 
ATOM    191  H   LYS L   9     -52.515  45.212  -0.932  0.00  0.00    +0.199 HD
ATOM    192  H   LYS L   9     -52.930  45.573   0.640  0.00  0.00    +0.199 HD
ATOM    193  H   LYS L   9     -53.908  46.069  -0.613  0.00  0.00    +0.199 HD
ENDBRANCH 189 190
ENDBRANCH 188 189
ENDBRANCH 187 188
ENDBRANCH 186 187
ENDBRANCH 100 186
ENDBRANCH  96 100
ENDBRANCH  95  98
BRANCH  95 194
ATOM    194  CB  VAL L  10     -50.197  35.991   3.030  0.00  0.00    +0.012 C 
ATOM    195  CG2 VAL L  10     -51.380  35.318   2.407  0.00  0.00    +0.009 C 
ATOM    196  CG1 VAL L  10     -48.993  35.854   2.184  0.00  0.00    +0.009 C 
ENDBRANCH  95 194
ENDBRANCH  91  95
ENDBRANCH  90  93
BRANCH  90 197
ATOM    197  CB  ASP L  11     -46.197  39.675   2.426  0.00  0.00    +0.083 C 
BRANCH 197 198
ATOM    198  CG  ASP L  11     -45.473  38.425   1.921  0.00  0.00    +0.044 C 
ATOM    199  OD2 ASP L  11     -45.361  37.433   2.683  0.00  0.00    -0.550 OA
ATOM    200  OD1 ASP L  11     -45.025  38.450   0.751  0.00  0.00    -0.550 OA
ENDBRANCH 197 198
ENDBRANCH  90 197
ENDBRANCH  86  90
ENDBRANCH  85  88
BRANCH  85 201
ATOM    201  CB  LEU L  12     -50.225  43.205   3.776  0.00  0.00    +0.034 C 
BRANCH 201 202
ATOM    202  CG  LEU L  12     -49.918  44.219   2.665  0.00  0.00    -0.015 C 
ATOM    203  CD2 LEU L  12     -49.224  45.438   3.263  0.00  0.00    +0.007 C 
ATOM    204  CD1 LEU L  12     -49.045  43.582   1.589  0.00  0.00    +0.007 C 
ENDBRANCH 201 202
ENDBRANCH  85 201
ENDBRANCH  81  85
ENDBRANCH  80  83
BRANCH  80 205
ATOM    205  CB  TRP L  13     -51.514  39.437   7.424  0.00  0.00    +0.065 C 
BRANCH 205 206
ATOM    206  CG  TRP L  13     -51.804  38.821   8.781  0.00  0.00    -0.037 C 
ATOM    207  CD1 TRP L  13     -50.939  38.084   9.572  0.00  0.00    +0.173 C 
ATOM    208  CD2 TRP L  13     -53.049  38.877   9.495  0.00  0.00    +0.001 A 
ATOM    209  NE1 TRP L  13     -51.583  37.703  10.730  0.00  0.00    -0.279 NA
ATOM    210  CE2 TRP L  13     -52.877  38.157  10.700  0.00  0.00    +0.066 A 
ATOM    211  CE3 TRP L  13     -54.297  39.458   9.221  0.00  0.00    +0.010 A 
ATOM    212  CZ2 TRP L  13     -53.900  38.032  11.653  0.00  0.00    +0.028 A 
ATOM    213  CZ3 TRP L  13     -55.322  39.321  10.163  0.00  0.00    +0.001 A 
ATOM    214  CH2 TRP L  13     -55.114  38.609  11.359  0.00  0.00    +0.002 A 
ENDBRANCH 205 206
ENDBRANCH  80 205
ENDBRANCH  76  80
ENDBRANCH  75  78
BRANCH  75 215
ATOM    215  CB  SER L  14     -46.322  38.438   7.775  0.00  0.00    +0.187 C 
BRANCH 215 216
ATOM    216  OG  SER L  14     -47.012  37.242   7.431  0.00  0.00    -0.393 OA
ATOM    217  H   SER L  14     -47.784  37.460   6.885  0.00  0.00    +0.209 HD
ENDBRANCH 215 216
ENDBRANCH  75 215
ENDBRANCH  71  75
ENDBRANCH  70  73
BRANCH  70 218
ATOM    218  CB  LEU L  15     -46.034  43.855   7.126  0.00  0.00    +0.034 C 
BRANCH 218 219
ATOM    219  CG  LEU L  15     -45.223  45.150   7.154  0.00  0.00    -0.015 C 
ATOM    220  CD2 LEU L  15     -43.754  44.866   7.184  0.00  0.00    +0.007 C 
ATOM    221  CD1 LEU L  15     -45.584  45.967   5.917  0.00  0.00    +0.007 C 
ENDBRANCH 218 219
ENDBRANCH  70 218
ENDBRANCH  66  70
ENDBRANCH  65  68
ENDBRANCH  61  65
ENDBRANCH  60  63
BRANCH  60 222
ATOM    222  CB  VAL L  17     -47.599  39.554  12.841  0.00  0.00    +0.012 C 
ATOM    223  CG2 VAL L  17     -46.943  38.760  13.987  0.00  0.00    +0.009 C 
ATOM    224  CG1 VAL L  17     -49.029  39.029  12.601  0.00  0.00    +0.009 C 
ENDBRANCH  60 222
ENDBRANCH  56  60
ENDBRANCH  55  58
BRANCH  55 225
ATOM    225  CB  LEU L  18     -43.109  42.249  11.747  0.00  0.00    +0.034 C 
BRANCH 225 226
ATOM    226  CG  LEU L  18     -42.626  40.913  11.181  0.00  0.00    -0.015 C 
ATOM    227  CD1 LEU L  18     -41.954  41.166   9.826  0.00  0.00    +0.007 C 
ATOM    228  CD2 LEU L  18     -41.663  40.229  12.156  0.00  0.00    +0.007 C 
ENDBRANCH 225 226
ENDBRANCH  55 225
ENDBRANCH  51  55
ENDBRANCH  50  53
BRANCH  50 229
ATOM    229  CB  CYS L  19     -45.758  46.720  12.890  0.00  0.00    +0.097 C 
BRANCH 229 230
ATOM    230  SG  CYS L  19     -45.627  48.491  13.306  0.00  0.00    -0.176 S 
ATOM    231  H   CYS L  19     -44.371  48.931  13.025  0.00  0.00    +0.102 HD
ENDBRANCH 229 230
ENDBRANCH  50 229
ENDBRANCH  46  50
ENDBRANCH  45  48
BRANCH  45 232
ATOM    232  CB  TYR L  20     -47.987  43.923  16.807  0.00  0.00    +0.067 C 
BRANCH 232 233
ATOM    233  CG  TYR L  20     -48.608  43.682  18.172  0.00  0.00    -0.045 A 
ATOM    234  CD2 TYR L  20     -48.064  42.749  19.062  0.00  0.00    +0.007 A 
ATOM    235  CD1 TYR L  20     -49.765  44.363  18.556  0.00  0.00    +0.007 A 
ATOM    236  CE2 TYR L  20     -48.614  42.532  20.296  0.00  0.00    +0.045 A 
ATOM    237  CE1 TYR L  20     -50.355  44.127  19.797  0.00  0.00    +0.045 A 
ATOM    238  CZ  TYR L  20     -49.780  43.211  20.659  0.00  0.00    +0.117 A 
BRANCH 238 239
ATOM    239  OH  TYR L  20     -50.355  42.989  21.891  0.00  0.00    -0.507 OA
ATOM    240  H   TYR L  20     -51.137  43.446  22.132  0.00  0.00    +0.292 HD
ENDBRANCH 238 239
ENDBRANCH 232 233
ENDBRANCH  45 232
ENDBRANCH  41  45
ENDBRANCH  40  43
BRANCH  40 241
ATOM    241  CB  GLU L  21     -43.640  41.020  17.222  0.00  0.00    +0.037 C 
BRANCH 241 242
ATOM    242  CG  GLU L  21     -42.591  40.213  18.007  0.00  0.00    +0.054 C 
BRANCH 242 243
ATOM    243  CD  GLU L  21     -42.206  38.884  17.359  0.00  0.00    +0.042 C 
ATOM    244  OE1 GLU L  21     -42.491  38.661  16.159  0.00  0.00    -0.550 OA
ATOM    245  OE2 GLU L  21     -41.604  38.055  18.067  0.00  0.00    -0.550 OA
ENDBRANCH 242 243
ENDBRANCH 241 242
ENDBRANCH  40 241
ENDBRANCH  36  40
ENDBRANCH  35  38
BRANCH  35 246
ATOM    246  CB  PHE L  22     -41.015  45.698  16.118  0.00  0.00    +0.067 C 
BRANCH 246 247
ATOM    247  CG  PHE L  22     -40.410  44.853  14.994  0.00  0.00    -0.045 A 
ATOM    248  CD2 PHE L  22     -39.938  43.576  15.227  0.00  0.00    +0.004 A 
ATOM    249  CD1 PHE L  22     -40.332  45.357  13.695  0.00  0.00    +0.004 A 
ATOM    250  CE2 PHE L  22     -39.404  42.805  14.183  0.00  0.00    +0.000 A 
ATOM    251  CE1 PHE L  22     -39.793  44.593  12.649  0.00  0.00    +0.000 A 
ATOM    252  CZ  PHE L  22     -39.327  43.315  12.904  0.00  0.00    +0.000 A 
ENDBRANCH 246 247
ENDBRANCH  35 246
ENDBRANCH  31  35
ENDBRANCH  30  33
BRANCH  30 253
ATOM    253  CB  LEU L  23     -44.287  48.337  19.183  0.00  0.00    +0.034 C 
BRANCH 253 254
ATOM    254  CG  LEU L  23     -44.082  49.245  17.970  0.00  0.00    -0.015 C 
ATOM    255  CD1 LEU L  23     -45.403  49.793  17.523  0.00  0.00    +0.007 C 
ATOM    256  CD2 LEU L  23     -43.092  50.370  18.288  0.00  0.00    +0.007 C 
ENDBRANCH 253 254
ENDBRANCH  30 253
ENDBRANCH  26  30
ENDBRANCH  25  28
BRANCH  25 257
ATOM    257  CB  VAL L  24     -45.879  44.472  22.002  0.00  0.00    +0.012 C 
ATOM    258  CG2 VAL L  24     -46.414  43.707  23.220  0.00  0.00    +0.009 C 
ATOM    259  CG1 VAL L  24     -46.824  45.621  21.666  0.00  0.00    +0.009 C 
ENDBRANCH  25 257
ENDBRANCH  21  25
ENDBRANCH  20  23
ENDBRANCH  16  20
ENDBRANCH  15  18
BRANCH  15 260
ATOM    260  C   UNK L  26     -45.439  39.149  22.944  0.00  0.00    +0.031 C 
BRANCH 260 261
ATOM    261  C   UNK L  26     -44.815  38.949  24.290  0.00  0.00    -0.001 C 
ATOM    262  C   UNK L  26     -45.921  39.039  25.370  0.00  0.00    +0.004 C 
ENDBRANCH 260 261
ENDBRANCH  15 260
ENDBRANCH   8  15
ENDBRANCH   1  11
BRANCH   4 263
ATOM    263  C   PRO L  28     -51.109  38.552  19.316  0.00  0.00    +0.234 C 
ATOM    264  O   PRO L  28     -52.015  38.712  20.145  0.00  0.00    -0.274 OA
ATOM    265  N   PHE L  29     -50.926  37.399  18.674  0.00  0.00    -0.302 N 
ATOM    266  H   PHE L  29     -50.172  37.311  18.047  0.00  0.00    +0.150 HD
BRANCH 265 267
ATOM    267  CA  PHE L  29     -51.820  36.261  18.881  0.00  0.00    +0.163 C 
BRANCH 267 268
ATOM    268  C   PHE L  29     -51.168  35.171  19.706  0.00  0.00    +0.234 C 
ATOM    269  O   PHE L  29     -51.697  34.059  19.791  0.00  0.00    -0.274 OA
ATOM    270  N   GLU L  30     -50.056  35.486  20.351  0.00  0.00    -0.302 N 
ATOM    271  H   GLU L  30     -49.741  36.419  20.348  0.00  0.00    +0.150 HD
BRANCH 270 272
ATOM    272  CA  GLU L  30     -49.296  34.476  21.062  0.00  0.00    +0.159 C 
BRANCH 272 273
ATOM    273  C   GLU L  30     -50.146  33.838  22.154  0.00  0.00    +0.234 C 
ATOM    274  O   GLU L  30     -50.859  34.523  22.892  0.00  0.00    -0.274 OA
ATOM    275  N   ALA L  31     -50.091  32.511  22.227  0.00  0.00    -0.303 N 
ATOM    276  H   ALA L  31     -49.557  32.021  21.561  0.00  0.00    +0.149 HD
BRANCH 275 277
ATOM    277  CA  ALA L  31     -50.792  31.759  23.255  0.00  0.00    +0.156 C 
ATOM    278  CB  ALA L  31     -52.227  31.402  22.820  0.00  0.00    +0.038 C 
BRANCH 277 279
ATOM    279  C   ALA L  31     -49.972  30.511  23.526  0.00  0.00    +0.234 C 
ATOM    280  O   ALA L  31     -49.098  30.151  22.729  0.00  0.00    -0.274 OA
ATOM    281  N   ASN L  32     -50.254  29.845  24.647  0.00  0.00    -0.302 N 
ATOM    282  H   ASN L  32     -51.015  30.103  25.216  0.00  0.00    +0.150 HD
BRANCH 281 283
ATOM    283  CA  ASN L  32     -49.394  28.722  24.997  0.00  0.00    +0.168 C 
BRANCH 283 284
ATOM    284  C   ASN L  32     -49.760  27.444  24.258  0.00  0.00    +0.234 C 
ATOM    285  O   ASN L  32     -49.009  26.472  24.353  0.00  0.00    -0.274 OA
ATOM    286  N   THR L  33     -50.882  27.399  23.538  0.00  0.00    -0.300 N 
ATOM    287  H   THR L  33     -51.517  28.150  23.580  0.00  0.00    +0.150 HD
BRANCH 286 288
ATOM    288  CA  THR L  33     -51.179  26.251  22.690  0.00  0.00    +0.187 C 
BRANCH 288 289
ATOM    289  C   THR L  33     -51.291  26.702  21.243  0.00  0.00    +0.236 C 
ATOM    290  O   THR L  33     -51.628  27.855  20.957  0.00  0.00    -0.274 OA
ATOM    291  N   TYR L  34     -50.977  25.788  20.323  0.00  0.00    -0.302 N 
ATOM    292  H   TYR L  34     -50.606  24.918  20.597  0.00  0.00    +0.150 HD
BRANCH 291 293
ATOM    293  CA  TYR L  34     -51.186  26.083  18.909  0.00  0.00    +0.163 C 
BRANCH 293 294
ATOM    294  C   TYR L  34     -52.668  26.264  18.608  0.00  0.00    +0.234 C 
ATOM    295  O   TYR L  34     -53.049  27.159  17.842  0.00  0.00    -0.274 OA
ATOM    296  N   GLN L  35     -53.508  25.410  19.194  0.00  0.00    -0.302 N 
ATOM    297  H   GLN L  35     -53.144  24.697  19.767  0.00  0.00    +0.150 HD
BRANCH 296 298
ATOM    298  CA  GLN L  35     -54.953  25.505  19.007  0.00  0.00    +0.159 C 
BRANCH 298 299
ATOM    299  C   GLN L  35     -55.492  26.887  19.366  0.00  0.00    +0.234 C 
ATOM    300  O   GLN L  35     -56.287  27.462  18.615  0.00  0.00    -0.274 OA
ATOM    301  N   GLU L  36     -55.112  27.430  20.527  0.00  0.00    -0.302 N 
ATOM    302  H   GLU L  36     -54.506  26.953  21.139  0.00  0.00    +0.150 HD
BRANCH 301 303
ATOM    303  CA  GLU L  36     -55.629  28.757  20.856  0.00  0.00    +0.159 C 
BRANCH 303 304
ATOM    304  C   GLU L  36     -55.060  29.819  19.922  0.00  0.00    +0.234 C 
ATOM    305  O   GLU L  36     -55.784  30.727  19.500  0.00  0.00    -0.274 OA
ATOM    306  N   THR L  37     -53.769  29.736  19.588  0.00  0.00    -0.300 N 
ATOM    307  H   THR L  37     -53.205  29.018  19.957  0.00  0.00    +0.150 HD
BRANCH 306 308
ATOM    308  CA  THR L  37     -53.200  30.724  18.666  0.00  0.00    +0.187 C 
BRANCH 308 309
ATOM    309  C   THR L  37     -53.946  30.714  17.343  0.00  0.00    +0.236 C 
ATOM    310  O   THR L  37     -54.268  31.770  16.789  0.00  0.00    -0.274 OA
ATOM    311  N   TYR L  38     -54.247  29.517  16.845  0.00  0.00    -0.302 N 
ATOM    312  H   TYR L  38     -53.942  28.712  17.322  0.00  0.00    +0.150 HD
BRANCH 311 313
ATOM    313  CA  TYR L  38     -55.011  29.360  15.621  0.00  0.00    +0.163 C 
BRANCH 313 314
ATOM    314  C   TYR L  38     -56.354  30.076  15.729  0.00  0.00    +0.234 C 
ATOM    315  O   TYR L  38     -56.727  30.860  14.848  0.00  0.00    -0.274 OA
ATOM    316  N   CYS L  39     -57.077  29.847  16.833  0.00  0.00    -0.302 N 
ATOM    317  H   CYS L  39     -56.716  29.258  17.534  0.00  0.00    +0.150 HD
BRANCH 316 318
ATOM    318  CA  CYS L  39     -58.393  30.458  17.014  0.00  0.00    +0.168 C 
BRANCH 318 319
ATOM    319  C   CYS L  39     -58.301  31.974  17.181  0.00  0.00    +0.235 C 
ATOM    320  O   CYS L  39     -59.141  32.715  16.660  0.00  0.00    -0.274 OA
ATOM    321  N   UNK L  40     -57.309  32.457  17.925  0.00  0.00    -0.302 N 
ATOM    322  H   UNK L  40     -56.697  31.843  18.392  0.00  0.00    +0.150 HD
BRANCH 321 323
ATOM    323  C   UNK L  40     -57.131  33.901  18.046  0.00  0.00    +0.159 C 
BRANCH 323 324
ATOM    324  C   UNK L  40     -56.887  34.548  16.687  0.00  0.00    +0.234 C 
ATOM    325  O   UNK L  40     -57.412  35.630  16.404  0.00  0.00    -0.274 OA
ATOM    326  N   ILE L  41     -56.056  33.932  15.846  0.00  0.00    -0.302 N 
ATOM    327  H   ILE L  41     -55.614  33.093  16.110  0.00  0.00    +0.150 HD
BRANCH 326 328
ATOM    328  CA  ILE L  41     -55.808  34.515  14.528  0.00  0.00    +0.162 C 
BRANCH 328 329
ATOM    329  C   ILE L  41     -57.093  34.535  13.709  0.00  0.00    +0.234 C 
ATOM    330  O   ILE L  41     -57.429  35.537  13.069  0.00  0.00    -0.274 OA
ATOM    331  N   UNK L  42     -57.821  33.422  13.700  0.00  0.00    -0.301 N 
ATOM    332  H   UNK L  42     -57.590  32.668  14.289  0.00  0.00    +0.150 HD
BRANCH 331 333
ATOM    333  C   UNK L  42     -58.965  33.337  12.805  0.00  0.00    +0.184 C 
BRANCH 333 334
ATOM    334  C   UNK L  42     -60.049  34.340  13.172  0.00  0.00    +0.236 C 
ATOM    335  O   UNK L  42     -60.897  34.666  12.332  0.00  0.00    -0.274 OA
ATOM    336  N   UNK L  42     -60.056  34.820  14.408  0.00  0.00    -0.302 N 
ATOM    337  H   UNK L  42     -59.352  34.534  15.034  0.00  0.00    +0.150 HD
BRANCH 336 338
ATOM    338  C   UNK L  42     -61.070  35.755  14.868  0.00  0.00    +0.159 C 
BRANCH 338 339
ATOM    339  C   UNK L  42     -60.477  37.131  15.161  0.00  0.00    +0.234 C 
ATOM    340  O   UNK L  42     -61.142  37.963  15.785  0.00  0.00    -0.274 OA
ATOM    341  N   UNK L  42     -59.239  37.380  14.717  0.00  0.00    -0.302 N 
ATOM    342  H   UNK L  42     -58.787  36.673  14.202  0.00  0.00    +0.150 HD
BRANCH 341 343
ATOM    343  C   UNK L  42     -58.513  38.626  14.943  0.00  0.00    +0.161 C 
BRANCH 343 344
ATOM    344  C   UNK L  42     -58.693  39.063  16.392  0.00  0.00    +0.234 C 
ATOM    345  O   UNK L  42     -59.180  40.161  16.671  0.00  0.00    -0.274 OA
ATOM    346  N   UNK L  42     -58.319  38.193  17.325  0.00  0.00    -0.302 N 
ATOM    347  H   UNK L  42     -57.948  37.327  17.040  0.00  0.00    +0.150 HD
BRANCH 346 348
ATOM    348  C   UNK L  42     -58.436  38.469  18.759  0.00  0.00    +0.159 C 
BRANCH 348 349
ATOM    349  C   UNK L  42     -57.060  38.881  19.282  0.00  0.00    +0.234 C 
ATOM    350  O   UNK L  42     -56.214  38.034  19.573  0.00  0.00    -0.274 OA
ATOM    351  N   UNK L  42     -56.846  40.186  19.406  0.00  0.00    -0.302 N 
ATOM    352  H   UNK L  42     -57.535  40.817  19.095  0.00  0.00    +0.150 HD
BRANCH 351 353
ATOM    353  C   UNK L  42     -55.620  40.707  19.989  0.00  0.00    +0.163 C 
BRANCH 353 354
ATOM    354  C   UNK L  42     -55.929  42.075  20.568  0.00  0.00    +0.234 C 
ATOM    355  O   UNK L  42     -56.918  42.716  20.196  0.00  0.00    -0.274 OA
ATOM    356  N   UNK L  42     -55.100  42.500  21.524  0.00  0.00    -0.300 N 
ATOM    357  H   UNK L  42     -54.347  41.925  21.791  0.00  0.00    +0.150 HD
BRANCH 356 358
ATOM    358  C   UNK L  42     -55.273  43.786  22.184  0.00  0.00    +0.187 C 
BRANCH 358 359
ATOM    359  C   UNK L  42     -53.930  44.510  22.234  0.00  0.00    +0.236 C 
ATOM    360  O   UNK L  42     -52.871  43.908  22.044  0.00  0.00    -0.274 OA
ATOM    361  N   UNK L  42     -53.990  45.808  22.478  0.00  0.00    -0.302 N 
ATOM    362  H   UNK L  42     -54.874  46.208  22.648  0.00  0.00    +0.150 HD
BRANCH 361 363
ATOM    363  C   UNK L  42     -52.818  46.686  22.510  0.00  0.00    +0.163 C 
BRANCH 363 364
ATOM    364  C   UNK L  42     -52.460  47.039  23.943  0.00  0.00    +0.237 C 
ATOM    365  O   UNK L  42     -53.337  47.509  24.694  0.00  0.00    -0.274 OA
ATOM    366  N   UNK L  42     -51.200  46.899  24.353  0.00  0.00    -0.288 N 
ATOM    367  C   UNK L  42     -50.760  47.534  25.607  0.00  0.00    +0.162 C 
ATOM    368  C   UNK L  42     -49.303  47.060  25.759  0.00  0.00    +0.033 C 
ATOM    369  C   UNK L  42     -49.176  45.883  24.834  0.00  0.00    +0.021 C 
ATOM    370  C   UNK L  42     -50.126  46.113  23.709  0.00  0.00    +0.109 C 
BRANCH 367 371
ATOM    371  C   UNK L  42     -50.841  49.050  25.491  0.00  0.00    +0.234 C 
ATOM    372  O   UNK L  42     -50.852  49.615  24.396  0.00  0.00    -0.274 OA
ATOM    373  N   UNK L  42     -50.877  49.729  26.637  0.00  0.00    -0.302 N 
ATOM    374  H   UNK L  42     -50.686  49.288  27.496  0.00  0.00    +0.150 HD
BRANCH 373 375
ATOM    375  C   UNK L  42     -51.210  51.149  26.574  0.00  0.00    +0.164 C 
BRANCH 375 376
ATOM    376  C   UNK L  42     -50.087  52.021  26.030  0.00  0.00    +0.234 C 
ATOM    377  O   UNK L  42     -50.360  53.148  25.605  0.00  0.00    -0.274 OA
ATOM    378  N   UNK L  42     -48.844  51.541  26.015  0.00  0.00    -0.302 N 
ATOM    379  H   UNK L  42     -48.661  50.634  26.352  0.00  0.00    +0.150 HD
BRANCH 378 380
ATOM    380  C   UNK L  42     -47.754  52.364  25.498  0.00  0.00    +0.163 C 
BRANCH 380 381
ATOM    381  C   UNK L  42     -47.698  52.397  23.972  0.00  0.00    +0.234 C 
ATOM    382  O   UNK L  42     -46.926  53.187  23.418  0.00  0.00    -0.274 OA
ATOM    383  N   UNK L  42     -48.473  51.560  23.282  0.00  0.00    -0.302 N 
ATOM    384  H   UNK L  42     -49.022  50.899  23.763  0.00  0.00    +0.150 HD
BRANCH 383 385
ATOM    385  C   UNK L  42     -48.519  51.609  21.824  0.00  0.00    +0.161 C 
BRANCH 385 386
ATOM    386  C   UNK L  42     -49.272  52.867  21.408  0.00  0.00    +0.234 C 
ATOM    387  O   UNK L  42     -50.427  53.071  21.802  0.00  0.00    -0.274 OA
ATOM    388  N   UNK L  42     -48.617  53.730  20.628  0.00  0.00    -0.300 N 
ATOM    389  H   UNK L  42     -47.746  53.489  20.238  0.00  0.00    +0.150 HD
BRANCH 388 390
ATOM    390  C   UNK L  42     -49.211  55.035  20.362  0.00  0.00    +0.187 C 
BRANCH 390 391
ATOM    391  C   UNK L  42     -50.342  54.923  19.345  0.00  0.00    +0.236 C 
ATOM    392  O   UNK L  42     -50.509  53.909  18.654  0.00  0.00    -0.274 OA
ATOM    393  N   UNK L  42     -51.113  56.007  19.255  0.00  0.00    -0.317 N 
ATOM    394  C   UNK L  42     -52.288  55.987  18.395  0.00  0.00    +0.128 C 
ATOM    395  H   UNK L  42     -50.889  56.817  19.768  0.00  0.00    +0.148 HD
ENDBRANCH 390 391
BRANCH 390 396
ATOM    396  C   UNK L  42     -48.168  56.028  19.857  0.00  0.00    +0.141 C 
ATOM    397  C   UNK L  42     -47.068  56.213  20.880  0.00  0.00    +0.040 C 
BRANCH 396 398
ATOM    398  O   UNK L  42     -47.628  55.560  18.612  0.00  0.00    -0.390 OA
ATOM    399  H   UNK L  42     -47.204  54.698  18.747  0.00  0.00    +0.210 HD
ENDBRANCH 396 398
ENDBRANCH 390 396
ENDBRANCH 388 390
ENDBRANCH 385 386
BRANCH 385 400
ATOM    400  C   UNK L  42     -49.178  50.343  21.260  0.00  0.00    +0.012 C 
ATOM    401  C   UNK L  42     -49.223  50.388  19.735  0.00  0.00    +0.009 C 
ATOM    402  C   UNK L  42     -48.430  49.096  21.756  0.00  0.00    +0.009 C 
ENDBRANCH 385 400
ENDBRANCH 383 385
ENDBRANCH 380 381
BRANCH 380 403
ATOM    403  C   UNK L  42     -46.410  51.879  26.061  0.00  0.00    +0.067 C 
BRANCH 403 404
ATOM    404  C   UNK L  42     -46.099  50.437  25.749  0.00  0.00    -0.045 A 
ATOM    405  C   UNK L  42     -45.579  50.072  24.512  0.00  0.00    +0.004 A 
ATOM    406  C   UNK L  42     -46.303  49.450  26.701  0.00  0.00    +0.004 A 
ATOM    407  C   UNK L  42     -45.297  48.745  24.225  0.00  0.00    +0.000 A 
ATOM    408  C   UNK L  42     -46.021  48.110  26.412  0.00  0.00    +0.000 A 
ATOM    409  C   UNK L  42     -45.509  47.772  25.184  0.00  0.00    +0.000 A 
ENDBRANCH 403 404
ENDBRANCH 380 403
ENDBRANCH 378 380
ENDBRANCH 375 376
BRANCH 375 410
ATOM    410  C   UNK L  42     -51.653  51.679  27.935  0.00  0.00    +0.083 C 
BRANCH 410 411
ATOM    411  C   UNK L  42     -53.061  51.237  28.290  0.00  0.00    +0.044 C 
ATOM    412  O   UNK L  42     -54.000  51.554  27.519  0.00  0.00    -0.550 OA
ATOM    413  O   UNK L  42     -53.247  50.634  29.362  0.00  0.00    -0.550 OA
ENDBRANCH 410 411
ENDBRANCH 375 410
ENDBRANCH 373 375
ENDBRANCH 367 371
ENDBRANCH 363 364
BRANCH 363 414
ATOM    414  C   UNK L  42     -53.098  47.981  21.748  0.00  0.00    +0.067 C 
BRANCH 414 415
ATOM    415  C   UNK L  42     -53.129  47.833  20.258  0.00  0.00    -0.045 A 
ATOM    416  C   UNK L  42     -51.962  47.700  19.536  0.00  0.00    +0.004 A 
ATOM    417  C   UNK L  42     -54.335  47.882  19.575  0.00  0.00    +0.004 A 
ATOM    418  C   UNK L  42     -51.989  47.581  18.147  0.00  0.00    +0.000 A 
ATOM    419  C   UNK L  42     -54.372  47.753  18.193  0.00  0.00    +0.000 A 
ATOM    420  C   UNK L  42     -53.202  47.606  17.478  0.00  0.00    +0.000 A 
ENDBRANCH 414 415
ENDBRANCH 363 414
ENDBRANCH 361 363
ENDBRANCH 358 359
BRANCH 358 421
ATOM    421  C   UNK L  42     -55.841  43.632  23.605  0.00  0.00    +0.141 C 
ATOM    422  C   UNK L  42     -57.232  42.963  23.588  0.00  0.00    +0.040 C 
BRANCH 421 423
ATOM    423  O   UNK L  42     -54.941  42.847  24.396  0.00  0.00    -0.390 OA
ATOM    424  H   UNK L  42     -54.851  41.965  24.003  0.00  0.00    +0.210 HD
ENDBRANCH 421 423
ENDBRANCH 358 421
ENDBRANCH 356 358
ENDBRANCH 353 354
BRANCH 353 425
ATOM    425  C   UNK L  42     -54.486  40.781  18.954  0.00  0.00    +0.067 C 
BRANCH 425 426
ATOM    426  C   UNK L  42     -54.599  41.957  18.027  0.00  0.00    -0.045 A 
ATOM    427  C   UNK L  42     -55.418  41.896  16.907  0.00  0.00    +0.004 A 
ATOM    428  C   UNK L  42     -53.870  43.119  18.263  0.00  0.00    +0.004 A 
ATOM    429  C   UNK L  42     -55.530  42.988  16.040  0.00  0.00    +0.000 A 
ATOM    430  C   UNK L  42     -53.987  44.223  17.406  0.00  0.00    +0.000 A 
ATOM    431  C   UNK L  42     -54.808  44.152  16.292  0.00  0.00    +0.000 A 
ENDBRANCH 425 426
ENDBRANCH 353 425
ENDBRANCH 351 353
ENDBRANCH 348 349
BRANCH 348 432
ATOM    432  C   UNK L  42     -58.957  37.242  19.498  0.00  0.00    +0.037 C 
BRANCH 432 433
ATOM    433  C   UNK L  42     -60.426  36.989  19.304  0.00  0.00    +0.054 C 
BRANCH 433 434
ATOM    434  C   UNK L  42     -60.817  35.549  19.614  0.00  0.00    +0.042 C 
ATOM    435  O   UNK L  42     -59.955  34.807  20.119  0.00  0.00    -0.550 OA
ATOM    436  O   UNK L  42     -62.010  35.200  19.445  0.00  0.00    -0.550 OA
ENDBRANCH 433 434
ENDBRANCH 432 433
ENDBRANCH 348 432
ENDBRANCH 346 348
ENDBRANCH 343 344
BRANCH 343 437
ATOM    437  C   UNK L  42     -58.950  39.727  13.955  0.00  0.00    +0.012 C 
ATOM    438  C   UNK L  42     -57.882  40.836  13.889  0.00  0.00    +0.009 C 
ATOM    439  C   UNK L  42     -59.118  39.134  12.575  0.00  0.00    +0.009 C 
ENDBRANCH 343 437
ENDBRANCH 341 343
ENDBRANCH 338 339
BRANCH 338 440
ATOM    440  C   UNK L  42     -61.753  35.160  16.100  0.00  0.00    +0.035 C 
BRANCH 440 441
ATOM    441  C   UNK L  42     -62.574  33.912  15.746  0.00  0.00    +0.039 C 
BRANCH 441 442
ATOM    442  C   UNK L  42     -63.457  33.495  16.874  0.00  0.00    +0.196 C 
BRANCH 442 443
ATOM    443  N   UNK L  42     -62.677  33.151  18.057  0.00  0.00    -0.279 N 
ATOM    444  C   UNK L  42     -62.533  31.927  18.548  0.00  0.00    +0.341 C 
ATOM    445  N   UNK L  42     -63.024  30.868  17.923  0.00  0.00    -0.292 N 
ATOM    446  N   UNK L  42     -61.900  31.766  19.710  0.00  0.00    -0.292 N 
ATOM    447  H   UNK L  42     -62.221  33.885  18.529  0.00  0.00    +0.258 HD
ATOM    448  H   UNK L  42     -63.493  30.977  17.064  0.00  0.00    +0.255 HD
ATOM    449  H   UNK L  42     -62.920  29.972  18.317  0.00  0.00    +0.255 HD
ATOM    450  H   UNK L  42     -61.785  30.864  20.087  0.00  0.00    +0.255 HD
ATOM    451  H   UNK L  42     -61.547  32.549  20.191  0.00  0.00    +0.255 HD
ENDBRANCH 442 443
ENDBRANCH 441 442
ENDBRANCH 440 441
ENDBRANCH 338 440
ENDBRANCH 336 338
ENDBRANCH 333 334
BRANCH 333 452
ATOM    452  C   UNK L  42     -59.536  31.915  12.815  0.00  0.00    +0.187 C 
BRANCH 452 453
ATOM    453  O   UNK L  42     -60.044  31.584  14.101  0.00  0.00    -0.393 OA
ATOM    454  H   UNK L  42     -59.327  31.629  14.753  0.00  0.00    +0.209 HD
ENDBRANCH 452 453
ENDBRANCH 333 452
ENDBRANCH 331 333
ENDBRANCH 328 329
BRANCH 328 455
ATOM    455  CB  ILE L  41     -54.705  33.748  13.781  0.00  0.00    +0.015 C 
ATOM    456  CG2 ILE L  41     -54.657  34.176  12.314  0.00  0.00    +0.010 C 
BRANCH 455 457
ATOM    457  CG1 ILE L  41     -53.337  33.968  14.420  0.00  0.00    +0.002 C 
ATOM    458  CD1 ILE L  41     -52.320  32.859  13.977  0.00  0.00    +0.004 C 
ENDBRANCH 455 457
ENDBRANCH 328 455
ENDBRANCH 326 328
ENDBRANCH 323 324
BRANCH 323 459
ATOM    459  C   UNK L  40     -55.960  34.220  18.973  0.00  0.00    +0.037 C 
BRANCH 459 460
ATOM    460  C   UNK L  40     -56.119  33.661  20.371  0.00  0.00    +0.053 C 
BRANCH 460 461
ATOM    461  C   UNK L  40     -56.676  34.672  21.307  0.00  0.00    +0.127 C 
BRANCH 461 462
ATOM    462  N   UNK L  40     -57.061  34.047  22.568  0.00  0.00    +0.219 N 
ATOM    463  H   UNK L  40     -57.775  33.340  22.393  0.00  0.00    +0.199 HD
ATOM    464  H   UNK L  40     -57.432  34.757  23.200  0.00  0.00    +0.199 HD
ATOM    465  H   UNK L  40     -56.245  33.607  22.993  0.00  0.00    +0.199 HD
ENDBRANCH 461 462
ENDBRANCH 460 461
ENDBRANCH 459 460
ENDBRANCH 323 459
ENDBRANCH 321 323
ENDBRANCH 318 319
BRANCH 318 466
ATOM    466  CB  CYS L  39     -59.083  29.804  18.209  0.00  0.00    +0.097 C 
BRANCH 466 467
ATOM    467  SG  CYS L  39     -59.941  28.326  17.634  0.00  0.00    -0.176 S 
ATOM    468  H   CYS L  39     -60.857  28.672  16.690  0.00  0.00    +0.102 HD
ENDBRANCH 466 467
ENDBRANCH 318 466
ENDBRANCH 316 318
ENDBRANCH 313 314
BRANCH 313 469
ATOM    469  CB  TYR L  38     -55.176  27.865  15.363  0.00  0.00    +0.067 C 
BRANCH 469 470
ATOM    470  CG  TYR L  38     -55.947  27.513  14.135  0.00  0.00    -0.045 A 
ATOM    471  CD2 TYR L  38     -57.336  27.464  14.159  0.00  0.00    +0.007 A 
ATOM    472  CD1 TYR L  38     -55.294  27.214  12.947  0.00  0.00    +0.007 A 
ATOM    473  CE2 TYR L  38     -58.052  27.136  13.041  0.00  0.00    +0.045 A 
ATOM    474  CE1 TYR L  38     -56.007  26.888  11.820  0.00  0.00    +0.045 A 
ATOM    475  CZ  TYR L  38     -57.387  26.852  11.876  0.00  0.00    +0.117 A 
BRANCH 475 476
ATOM    476  OH  TYR L  38     -58.116  26.526  10.766  0.00  0.00    -0.507 OA
ATOM    477  H   TYR L  38     -57.680  26.329   9.960  0.00  0.00    +0.292 HD
ENDBRANCH 475 476
ENDBRANCH 469 470
ENDBRANCH 313 469
ENDBRANCH 311 313
ENDBRANCH 308 309
BRANCH 308 478
ATOM    478  CB  THR L  37     -51.714  30.445  18.425  0.00  0.00    +0.141 C 
ATOM    479  CG2 THR L  37     -51.146  31.444  17.414  0.00  0.00    +0.040 C 
BRANCH 478 480
ATOM    480  OG1 THR L  37     -51.005  30.590  19.660  0.00  0.00    -0.390 OA
ATOM    481  H   THR L  37     -51.115  31.495  19.992  0.00  0.00    +0.210 HD
ENDBRANCH 478 480
ENDBRANCH 308 478
ENDBRANCH 306 308
ENDBRANCH 303 304
BRANCH 303 482
ATOM    482  CB  GLU L  36     -55.348  29.132  22.313  0.00  0.00    +0.037 C 
BRANCH 482 483
ATOM    483  CG  GLU L  36     -56.044  30.452  22.686  0.00  0.00    +0.054 C 
BRANCH 483 484
ATOM    484  CD  GLU L  36     -55.660  30.992  24.064  0.00  0.00    +0.042 C 
ATOM    485  OE2 GLU L  36     -55.376  30.173  24.964  0.00  0.00    -0.550 OA
ATOM    486  OE1 GLU L  36     -55.669  32.235  24.254  0.00  0.00    -0.550 OA
ENDBRANCH 483 484
ENDBRANCH 482 483
ENDBRANCH 303 482
ENDBRANCH 301 303
ENDBRANCH 298 299
BRANCH 298 487
ATOM    487  CB  GLN L  35     -55.634  24.432  19.840  0.00  0.00    +0.041 C 
BRANCH 487 488
ATOM    488  CG  GLN L  35     -55.333  23.032  19.371  0.00  0.00    +0.098 C 
BRANCH 488 489
ATOM    489  CD  GLN L  35     -56.273  22.030  19.982  0.00  0.00    +0.211 C 
ATOM    490  OE1 GLN L  35     -56.281  21.851  21.199  0.00  0.00    -0.276 OA
ATOM    491  NE2 GLN L  35     -57.133  21.451  19.171  0.00  0.00    -0.329 N 
ATOM    492  H   GLN L  35     -57.089  21.623  18.203  0.00  0.00    +0.145 HD
ATOM    493  H   GLN L  35     -57.820  20.845  19.533  0.00  0.00    +0.145 HD
ENDBRANCH 488 489
ENDBRANCH 487 488
ENDBRANCH 298 487
ENDBRANCH 296 298
ENDBRANCH 293 294
BRANCH 293 494
ATOM    494  CB  TYR L  34     -50.587  24.968  18.049  0.00  0.00    +0.067 C 
BRANCH 494 495
ATOM    495  CG  TYR L  34     -49.079  24.989  18.074  0.00  0.00    -0.045 A 
ATOM    496  CD2 TYR L  34     -48.373  24.385  19.109  0.00  0.00    +0.007 A 
ATOM    497  CD1 TYR L  34     -48.364  25.642  17.079  0.00  0.00    +0.007 A 
ATOM    498  CE2 TYR L  34     -46.978  24.425  19.149  0.00  0.00    +0.045 A 
ATOM    499  CE1 TYR L  34     -46.958  25.682  17.101  0.00  0.00    +0.045 A 
ATOM    500  CZ  TYR L  34     -46.283  25.075  18.142  0.00  0.00    +0.117 A 
BRANCH 500 501
ATOM    501  OH  TYR L  34     -44.915  25.117  18.173  0.00  0.00    -0.507 OA
ATOM    502  H   TYR L  34     -44.444  25.556  17.492  0.00  0.00    +0.292 HD
ENDBRANCH 500 501
ENDBRANCH 494 495
ENDBRANCH 293 494
ENDBRANCH 291 293
ENDBRANCH 288 289
BRANCH 288 503
ATOM    503  CB  THR L  33     -52.471  25.498  23.111  0.00  0.00    +0.141 C 
ATOM    504  CG2 THR L  33     -52.371  24.971  24.547  0.00  0.00    +0.040 C 
BRANCH 503 505
ATOM    505  OG1 THR L  33     -53.619  26.345  22.976  0.00  0.00    -0.390 OA
ATOM    506  H   THR L  33     -53.528  27.109  23.567  0.00  0.00    +0.210 HD
ENDBRANCH 503 505
ENDBRANCH 288 503
ENDBRANCH 286 288
ENDBRANCH 283 284
BRANCH 283 507
ATOM    507  CB  ASN L  32     -49.415  28.418  26.498  0.00  0.00    +0.127 C 
BRANCH 507 508
ATOM    508  CG  ASN L  32     -50.778  27.937  26.991  0.00  0.00    +0.213 C 
ATOM    509  OD1 ASN L  32     -51.821  28.463  26.610  0.00  0.00    -0.276 OA
ATOM    510  ND2 ASN L  32     -50.762  26.906  27.851  0.00  0.00    -0.329 N 
ATOM    511  H   ASN L  32     -49.904  26.512  28.132  0.00  0.00    +0.145 HD
ATOM    512  H   ASN L  32     -51.608  26.544  28.201  0.00  0.00    +0.145 HD
ENDBRANCH 507 508
ENDBRANCH 283 507
ENDBRANCH 281 283
ENDBRANCH 277 279
ENDBRANCH 275 277
ENDBRANCH 272 273
BRANCH 272 513
ATOM    513  CB  GLU L  30     -48.039  35.101  21.652  0.00  0.00    +0.037 C 
BRANCH 513 514
ATOM    514  CG  GLU L  30     -47.116  34.082  22.266  0.00  0.00    +0.054 C 
BRANCH 514 515
ATOM    515  CD  GLU L  30     -45.764  34.666  22.536  0.00  0.00    +0.042 C 
ATOM    516  OE2 GLU L  30     -45.632  35.400  23.539  0.00  0.00    -0.550 OA
ATOM    517  OE1 GLU L  30     -44.842  34.383  21.740  0.00  0.00    -0.550 OA
ENDBRANCH 514 515
ENDBRANCH 513 514
ENDBRANCH 272 513
ENDBRANCH 270 272
ENDBRANCH 267 268
BRANCH 267 518
ATOM    518  CB  PHE L  29     -52.297  35.717  17.538  0.00  0.00    +0.067 C 
BRANCH 518 519
ATOM    519  CG  PHE L  29     -52.903  36.780  16.664  0.00  0.00    -0.045 A 
ATOM    520  CD2 PHE L  29     -54.154  37.313  16.969  0.00  0.00    +0.004 A 
ATOM    521  CD1 PHE L  29     -52.187  37.306  15.587  0.00  0.00    +0.004 A 
ATOM    522  CE2 PHE L  29     -54.708  38.326  16.172  0.00  0.00    +0.000 A 
ATOM    523  CE1 PHE L  29     -52.722  38.333  14.804  0.00  0.00    +0.000 A 
ATOM    524  CZ  PHE L  29     -53.995  38.832  15.093  0.00  0.00    +0.000 A 
ENDBRANCH 518 519
ENDBRANCH 267 518
ENDBRANCH 265 267
ENDBRANCH   4 263
TORSDOF 210
REMARK  Name = /Users/wangyang/Desktop/Breast_cancer_brain_metastasis/wang_Gene/AIDD/15_Protein_ligand_docking/data_7ztl/protein.pdb
REMARK  1290 active torsions:
REMARK  status: ('A' for Active; 'I' for Inactive)
REMARK    1  A    between atoms: N_1  and  CA_2
REMARK    2  A    between atoms: CA_2  and  C_3
REMARK    3  A    between atoms: N_5  and  CA_6
REMARK    4  A    between atoms: CA_6  and  C_7
REMARK    5  A    between atoms: CA_6  and  CB_9
REMARK    6  A    between atoms: N_10  and  CA_11
REMARK    7  A    between atoms: CA_11  and  C_12
REMARK    8  A    between atoms: CA_11  and  CB_14
REMARK    9  A    between atoms: CB_14  and  CG_15
REMARK   10  A    between atoms: N_24  and  CA_25
REMARK   11  A    between atoms: CA_25  and  C_26
REMARK   12  A    between atoms: CA_25  and  CB_28
REMARK   13  A    between atoms: N_29  and  CA_30
REMARK   14  A    between atoms: CA_30  and  C_31
REMARK   15  A    between atoms: CA_30  and  CB_33
REMARK   16  A    between atoms: CB_33  and  CG_34
REMARK   17  A    between atoms: CG_34  and  CD1_35
REMARK   18  A    between atoms: CG_34  and  CD2_36
REMARK   19  A    between atoms: N_37  and  CA_38
REMARK   20  A    between atoms: CA_38  and  C_39
REMARK   21  A    between atoms: CA_38  and  CB_41
REMARK   22  A    between atoms: CB_41  and  CG_42
REMARK   23  A    between atoms: CG_42  and  CD_43
REMARK   24  A    between atoms: N_46  and  CA_47
REMARK   25  A    between atoms: CA_47  and  C_48
REMARK   26  A    between atoms: CA_47  and  CB_50
REMARK   27  A    between atoms: CB_50  and  CG_51
REMARK   28  A    between atoms: N_54  and  CA_55
REMARK   29  A    between atoms: CA_55  and  C_56
REMARK   30  A    between atoms: CA_55  and  CB_58
REMARK   31  A    between atoms: CB_58  and  CG_59
REMARK   32  A    between atoms: N_65  and  CA_66
REMARK   33  A    between atoms: CA_66  and  C_67
REMARK   34  A    between atoms: CA_66  and  CB_69
REMARK   35  A    between atoms: CB_69  and  CG_70
REMARK   36  A    between atoms: CG_70  and  CD_71
REMARK   37  A    between atoms: N_74  and  CA_75
REMARK   38  A    between atoms: CA_75  and  C_76
REMARK   39  A    between atoms: CA_75  and  CB_78
REMARK   40  A    between atoms: CB_78  and  CG1_79
REMARK   41  A    between atoms: CB_78  and  CG2_80
REMARK   42  A    between atoms: CG1_79  and  CD1_81
REMARK   43  A    between atoms: N_82  and  CA_83
REMARK   44  A    between atoms: CA_83  and  C_84
REMARK   45  A    between atoms: N_86  and  CA_87
REMARK   46  A    between atoms: CA_87  and  C_88
REMARK   47  A    between atoms: CA_87  and  CB_90
REMARK   48  A    between atoms: CB_90  and  CG_91
REMARK   49  A    between atoms: CG_91  and  CD_92
REMARK   50  A    between atoms: CD_92  and  NE_93
REMARK   51  A    between atoms: CA_98  and  C_99
REMARK   52  A    between atoms: N_104  and  CA_105
REMARK   53  A    between atoms: CA_105  and  C_106
REMARK   54  A    between atoms: CA_105  and  CB_108
REMARK   55  A    between atoms: CB_108  and  CG_109
REMARK   56  A    between atoms: CG_109  and  CD1_110
REMARK   57  A    between atoms: CG_109  and  CD2_111
REMARK   58  A    between atoms: N_112  and  CA_113
REMARK   59  A    between atoms: CA_113  and  C_114
REMARK   60  A    between atoms: N_116  and  C_117
REMARK   61  A    between atoms: C_117  and  C_118
REMARK   62  A    between atoms: C_117  and  C_120
REMARK   63  A    between atoms: C_120  and  C_121
REMARK   64  A    between atoms: C_121  and  C_122
REMARK   65  A    between atoms: N_123  and  CA_124
REMARK   66  A    between atoms: CA_124  and  C_125
REMARK   67  A    between atoms: N_127  and  CA_128
REMARK   68  A    between atoms: CA_128  and  C_129
REMARK   69  A    between atoms: CA_128  and  CB_131
REMARK   70  A    between atoms: CB_131  and  CG_132
REMARK   71  A    between atoms: CG_132  and  CD_133
REMARK   72  A    between atoms: CD_133  and  CE_134
REMARK   73  A    between atoms: CE_134  and  NZ_135
REMARK   74  A    between atoms: N_136  and  CA_137
REMARK   75  A    between atoms: CA_137  and  C_138
REMARK   76  A    between atoms: CA_137  and  CB_140
REMARK   77  A    between atoms: CB_140  and  CG_141
REMARK   78  A    between atoms: N_147  and  CA_148
REMARK   79  A    between atoms: CA_148  and  C_149
REMARK   80  A    between atoms: N_151  and  CA_152
REMARK   81  A    between atoms: CA_152  and  C_153
REMARK   82  A    between atoms: CA_152  and  CB_155
REMARK   83  A    between atoms: CB_155  and  CG_156
REMARK   84  A    between atoms: N_159  and  CA_160
REMARK   85  A    between atoms: CA_160  and  C_161
REMARK   86  A    between atoms: CA_160  and  CB_163
REMARK   87  A    between atoms: CB_163  and  CG1_164
REMARK   88  A    between atoms: CB_163  and  CG2_165
REMARK   89  A    between atoms: N_166  and  CA_167
REMARK   90  A    between atoms: CA_167  and  C_168
REMARK   91  A    between atoms: CA_167  and  CB_170
REMARK   92  A    between atoms: CB_170  and  CG_171
REMARK   93  A    between atoms: CZ_176  and  OH_177
REMARK   94  A    between atoms: N_178  and  CA_179
REMARK   95  A    between atoms: CA_179  and  C_180
REMARK   96  A    between atoms: CA_179  and  CB_182
REMARK   97  A    between atoms: CB_182  and  CG_183
REMARK   98  A    between atoms: CG_183  and  CD1_184
REMARK   99  A    between atoms: CG_183  and  CD2_185
REMARK  100  A    between atoms: N_186  and  CA_187
REMARK  101  A    between atoms: CA_187  and  C_188
REMARK  102  A    between atoms: CA_187  and  CB_190
REMARK  103  A    between atoms: N_191  and  CA_192
REMARK  104  A    between atoms: CA_192  and  C_193
REMARK  105  A    between atoms: CA_192  and  CB_195
REMARK  106  A    between atoms: CB_195  and  CG_196
REMARK  107  A    between atoms: CG_196  and  CD_197
REMARK  108  A    between atoms: CD_197  and  NE_198
REMARK  109  A    between atoms: N_202  and  CA_203
REMARK  110  A    between atoms: CA_203  and  C_204
REMARK  111  A    between atoms: CA_203  and  CB_206
REMARK  112  A    between atoms: CB_206  and  CG_207
REMARK  113  A    between atoms: CG_207  and  CD_208
REMARK  114  A    between atoms: N_211  and  CA_212
REMARK  115  A    between atoms: CA_212  and  C_213
REMARK  116  A    between atoms: CA_212  and  CB_215
REMARK  117  A    between atoms: CB_215  and  CG_216
REMARK  118  A    between atoms: CG_216  and  CD_217
REMARK  119  A    between atoms: CD_217  and  CE_218
REMARK  120  A    between atoms: CE_218  and  NZ_219
REMARK  121  A    between atoms: N_220  and  CA_221
REMARK  122  A    between atoms: CA_221  and  C_222
REMARK  123  A    between atoms: CA_221  and  CB_224
REMARK  124  A    between atoms: N_225  and  CA_226
REMARK  125  A    between atoms: CA_226  and  C_227
REMARK  126  A    between atoms: CA_226  and  CB_229
REMARK  127  A    between atoms: CB_229  and  OG_230
REMARK  128  A    between atoms: N_231  and  CA_232
REMARK  129  A    between atoms: CA_232  and  C_233
REMARK  130  A    between atoms: CA_232  and  CB_235
REMARK  131  A    between atoms: CB_235  and  CG_236
REMARK  132  A    between atoms: CG_236  and  CD_237
REMARK  133  A    between atoms: CD_237  and  CE_238
REMARK  134  A    between atoms: CE_238  and  NZ_239
REMARK  135  A    between atoms: N_240  and  CA_241
REMARK  136  A    between atoms: CA_241  and  C_242
REMARK  137  A    between atoms: CA_241  and  CB_244
REMARK  138  A    between atoms: CB_244  and  CG_245
REMARK  139  A    between atoms: N_251  and  CA_252
REMARK  140  A    between atoms: CA_252  and  C_253
REMARK  141  A    between atoms: CA_252  and  CB_255
REMARK  142  A    between atoms: CB_255  and  CG1_256
REMARK  143  A    between atoms: CB_255  and  CG2_257
REMARK  144  A    between atoms: CG1_256  and  CD1_258
REMARK  145  A    between atoms: N_259  and  CA_260
REMARK  146  A    between atoms: CA_260  and  C_261
REMARK  147  A    between atoms: CA_260  and  CB_263
REMARK  148  A    between atoms: CB_263  and  CG_264
REMARK  149  A    between atoms: CG_264  and  CD1_265
REMARK  150  A    between atoms: CG_264  and  CD2_266
REMARK  151  A    between atoms: N_267  and  CA_268
REMARK  152  A    between atoms: CA_268  and  C_269
REMARK  153  A    between atoms: CA_268  and  CB_271
REMARK  154  A    between atoms: N_272  and  CA_273
REMARK  155  A    between atoms: CA_273  and  C_274
REMARK  156  A    between atoms: CA_273  and  CB_276
REMARK  157  A    between atoms: CB_276  and  CG_277
REMARK  158  A    between atoms: CG_277  and  CD2_278
REMARK  159  A    between atoms: CG_277  and  CD1_279
REMARK  160  A    between atoms: N_280  and  CA_281
REMARK  161  A    between atoms: CA_281  and  C_282
REMARK  162  A    between atoms: CA_281  and  CB_284
REMARK  163  A    between atoms: CB_284  and  CG_285
REMARK  164  A    between atoms: CG_285  and  CD_286
REMARK  165  A    between atoms: CD_286  and  CE_287
REMARK  166  A    between atoms: CE_287  and  NZ_288
REMARK  167  A    between atoms: N_289  and  CA_290
REMARK  168  A    between atoms: CA_290  and  C_291
REMARK  169  A    between atoms: CA_290  and  CB_293
REMARK  170  A    between atoms: CB_293  and  CG2_294
REMARK  171  A    between atoms: CB_293  and  CG1_295
REMARK  172  A    between atoms: N_296  and  CA_297
REMARK  173  A    between atoms: CA_297  and  C_298
REMARK  174  A    between atoms: CA_297  and  CB_300
REMARK  175  A    between atoms: CB_300  and  CG_301
REMARK  176  A    between atoms: CG_301  and  CD1_302
REMARK  177  A    between atoms: CG_301  and  CD2_303
REMARK  178  A    between atoms: N_304  and  CA_305
REMARK  179  A    between atoms: CA_305  and  C_306
REMARK  180  A    between atoms: CA_305  and  CB_308
REMARK  181  A    between atoms: CB_308  and  CG_309
REMARK  182  A    between atoms: N_315  and  CA_316
REMARK  183  A    between atoms: CA_316  and  C_317
REMARK  184  A    between atoms: CA_316  and  CB_319
REMARK  185  A    between atoms: CB_319  and  CG_320
REMARK  186  A    between atoms: CG_320  and  CD_321
REMARK  187  A    between atoms: CD_321  and  CE_322
REMARK  188  A    between atoms: CE_322  and  NZ_323
REMARK  189  A    between atoms: N_324  and  CA_325
REMARK  190  A    between atoms: CA_325  and  C_326
REMARK  191  A    between atoms: CA_325  and  CB_328
REMARK  192  A    between atoms: N_329  and  CA_330
REMARK  193  A    between atoms: CA_330  and  C_331
REMARK  194  A    between atoms: CA_330  and  CB_333
REMARK  195  A    between atoms: CB_333  and  CG_334
REMARK  196  A    between atoms: CG_334  and  CD_335
REMARK  197  A    between atoms: N_338  and  CA_339
REMARK  198  A    between atoms: CA_339  and  C_340
REMARK  199  A    between atoms: CA_339  and  CB_342
REMARK  200  A    between atoms: CB_342  and  CG_343
REMARK  201  A    between atoms: CG_343  and  CD1_344
REMARK  202  A    between atoms: CG_343  and  CD2_345
REMARK  203  A    between atoms: N_346  and  CA_347
REMARK  204  A    between atoms: CA_347  and  C_348
REMARK  205  A    between atoms: CA_347  and  CB_350
REMARK  206  A    between atoms: CB_350  and  CG_351
REMARK  207  A    between atoms: CG_351  and  CD_352
REMARK  208  A    between atoms: N_355  and  C_356
REMARK  209  A    between atoms: C_356  and  C_357
REMARK  210  A    between atoms: C_356  and  C_359
REMARK  211  A    between atoms: C_359  and  C_360
REMARK  212  A    between atoms: N_361  and  CA_362
REMARK  213  A    between atoms: CA_362  and  C_363
REMARK  214  A    between atoms: CA_362  and  CB_365
REMARK  215  A    between atoms: N_366  and  CA_367
REMARK  216  A    between atoms: CA_367  and  C_368
REMARK  217  A    between atoms: N_370  and  CA_371
REMARK  218  A    between atoms: CA_371  and  C_372
REMARK  219  A    between atoms: CA_371  and  CB_374
REMARK  220  A    between atoms: CB_374  and  CG2_375
REMARK  221  A    between atoms: CB_374  and  CG1_376
REMARK  222  A    between atoms: N_377  and  CA_378
REMARK  223  A    between atoms: CA_378  and  C_379
REMARK  224  A    between atoms: CA_378  and  CB_381
REMARK  225  A    between atoms: CB_381  and  CG_382
REMARK  226  A    between atoms: CG_382  and  CD_383
REMARK  227  A    between atoms: N_386  and  CA_387
REMARK  228  A    between atoms: CA_387  and  C_388
REMARK  229  A    between atoms: CA_387  and  CB_390
REMARK  230  A    between atoms: CB_390  and  CG_391
REMARK  231  A    between atoms: N_396  and  CA_397
REMARK  232  A    between atoms: CA_397  and  C_398
REMARK  233  A    between atoms: CA_397  and  CB_400
REMARK  234  A    between atoms: CB_400  and  CG_401
REMARK  235  A    between atoms: CG_401  and  CD_402
REMARK  236  A    between atoms: N_405  and  CA_406
REMARK  237  A    between atoms: CA_406  and  C_407
REMARK  238  A    between atoms: CA_406  and  CB_409
REMARK  239  A    between atoms: CB_409  and  CG_410
REMARK  240  A    between atoms: CG_410  and  CD2_411
REMARK  241  A    between atoms: CG_410  and  CD1_412
REMARK  242  A    between atoms: N_413  and  CA_414
REMARK  243  A    between atoms: CA_414  and  C_415
REMARK  244  A    between atoms: CA_414  and  CB_417
REMARK  245  A    between atoms: CB_417  and  CG_418
REMARK  246  A    between atoms: CG_418  and  CD_419
REMARK  247  A    between atoms: CD_419  and  NE_420
REMARK  248  A    between atoms: N_424  and  CA_425
REMARK  249  A    between atoms: CA_425  and  C_426
REMARK  250  A    between atoms: CA_425  and  CB_428
REMARK  251  A    between atoms: CB_428  and  CG_429
REMARK  252  A    between atoms: CG_429  and  CD_430
REMARK  253  A    between atoms: CD_430  and  NE_431
REMARK  254  A    between atoms: N_435  and  CA_436
REMARK  255  A    between atoms: CA_436  and  C_437
REMARK  256  A    between atoms: CA_436  and  CB_439
REMARK  257  A    between atoms: CB_439  and  CG_440
REMARK  258  A    between atoms: CG_440  and  CD_441
REMARK  259  A    between atoms: N_444  and  CA_445
REMARK  260  A    between atoms: CA_445  and  C_446
REMARK  261  A    between atoms: CA_445  and  CB_448
REMARK  262  A    between atoms: CB_448  and  CG1_449
REMARK  263  A    between atoms: CB_448  and  CG2_450
REMARK  264  A    between atoms: N_451  and  C_452
REMARK  265  A    between atoms: C_452  and  C_453
REMARK  266  A    between atoms: C_452  and  C_455
REMARK  267  A    between atoms: C_455  and  C_456
REMARK  268  A    between atoms: N_457  and  CA_458
REMARK  269  A    between atoms: CA_458  and  C_459
REMARK  270  A    between atoms: CA_458  and  CB_461
REMARK  271  A    between atoms: CB_461  and  CG1_462
REMARK  272  A    between atoms: CB_461  and  CG2_463
REMARK  273  A    between atoms: CG1_462  and  CD1_464
REMARK  274  A    between atoms: N_465  and  CA_466
REMARK  275  A    between atoms: CA_466  and  C_467
REMARK  276  A    between atoms: CA_466  and  CB_469
REMARK  277  A    between atoms: CB_469  and  CG_470
REMARK  278  A    between atoms: CG_470  and  CD_471
REMARK  279  A    between atoms: N_474  and  C_475
REMARK  280  A    between atoms: C_475  and  C_476
REMARK  281  A    between atoms: C_475  and  C_478
REMARK  282  A    between atoms: C_478  and  O_479
REMARK  283  A    between atoms: N_480  and  C_481
REMARK  284  A    between atoms: C_481  and  C_482
REMARK  285  A    between atoms: C_481  and  C_484
REMARK  286  A    between atoms: C_484  and  C_485
REMARK  287  A    between atoms: N_490  and  C_491
REMARK  288  A    between atoms: C_491  and  C_492
REMARK  289  A    between atoms: C_491  and  C_494
REMARK  290  A    between atoms: C_494  and  C_495
REMARK  291  A    between atoms: C_495  and  C_496
REMARK  292  A    between atoms: C_495  and  C_497
REMARK  293  A    between atoms: N_498  and  C_499
REMARK  294  A    between atoms: C_499  and  C_500
REMARK  295  A    between atoms: C_499  and  C_502
REMARK  296  A    between atoms: C_502  and  C_503
REMARK  297  A    between atoms: C_503  and  C_504
REMARK  298  A    between atoms: C_504  and  N_505
REMARK  299  A    between atoms: N_509  and  C_510
REMARK  300  A    between atoms: C_510  and  C_511
REMARK  301  A    between atoms: C_510  and  C_513
REMARK  302  A    between atoms: C_513  and  C_514
REMARK  303  A    between atoms: C_520  and  C_521
REMARK  304  A    between atoms: N_526  and  C_527
REMARK  305  A    between atoms: C_527  and  C_528
REMARK  306  A    between atoms: C_527  and  C_530
REMARK  307  A    between atoms: C_530  and  C_531
REMARK  308  A    between atoms: N_534  and  C_535
REMARK  309  A    between atoms: C_535  and  C_536
REMARK  310  A    between atoms: C_535  and  C_538
REMARK  311  A    between atoms: C_538  and  C_539
REMARK  312  A    between atoms: C_538  and  C_540
REMARK  313  A    between atoms: C_539  and  C_541
REMARK  314  A    between atoms: N_542  and  C_543
REMARK  315  A    between atoms: C_543  and  C_544
REMARK  316  A    between atoms: C_543  and  C_546
REMARK  317  A    between atoms: C_546  and  C_547
REMARK  318  A    between atoms: C_547  and  C_548
REMARK  319  A    between atoms: C_547  and  C_549
REMARK  320  A    between atoms: N_550  and  C_551
REMARK  321  A    between atoms: C_551  and  C_552
REMARK  322  A    between atoms: C_551  and  C_554
REMARK  323  A    between atoms: C_554  and  C_555
REMARK  324  A    between atoms: C_555  and  C_556
REMARK  325  A    between atoms: C_556  and  N_557
REMARK  326  A    between atoms: N_561  and  C_562
REMARK  327  A    between atoms: C_562  and  C_567
REMARK  328  A    between atoms: C_563  and  C_564
REMARK  329  A    between atoms: C_568  and  C_569
REMARK  330  A    between atoms: C_568  and  C_571
REMARK  331  A    between atoms: C_569  and  C_572
REMARK  332  A    between atoms: C_569  and  C_573
REMARK  333  A    between atoms: C_570  and  C_573
REMARK  334  A    between atoms: N_574  and  CA_575
REMARK  335  A    between atoms: CA_575  and  C_576
REMARK  336  A    between atoms: CA_575  and  CB_578
REMARK  337  A    between atoms: CB_578  and  CG_579
REMARK  338  A    between atoms: CZ_584  and  OH_585
REMARK  339  A    between atoms: N_586  and  CA_587
REMARK  340  A    between atoms: CA_587  and  C_588
REMARK  341  A    between atoms: N_590  and  CA_591
REMARK  342  A    between atoms: CA_591  and  C_592
REMARK  343  A    between atoms: CA_591  and  CB_594
REMARK  344  A    between atoms: CB_594  and  CG_595
REMARK  345  A    between atoms: CZ_600  and  OH_601
REMARK  346  A    between atoms: N_602  and  CA_603
REMARK  347  A    between atoms: CA_603  and  C_604
REMARK  348  A    between atoms: CA_603  and  CB_606
REMARK  349  A    between atoms: CB_606  and  CG_607
REMARK  350  A    between atoms: N_613  and  CA_614
REMARK  351  A    between atoms: CA_614  and  C_615
REMARK  352  A    between atoms: CA_614  and  CB_617
REMARK  353  A    between atoms: CB_617  and  CG_618
REMARK  354  A    between atoms: N_623  and  CA_624
REMARK  355  A    between atoms: CA_624  and  C_625
REMARK  356  A    between atoms: CA_624  and  CB_627
REMARK  357  A    between atoms: CB_627  and  CG_628
REMARK  358  A    between atoms: N_631  and  CA_632
REMARK  359  A    between atoms: CA_632  and  C_633
REMARK  360  A    between atoms: CA_632  and  CB_635
REMARK  361  A    between atoms: N_636  and  CA_637
REMARK  362  A    between atoms: CA_637  and  C_638
REMARK  363  A    between atoms: CA_637  and  CB_640
REMARK  364  A    between atoms: CB_640  and  OG1_641
REMARK  365  A    between atoms: CB_640  and  CG2_642
REMARK  366  A    between atoms: N_643  and  CA_644
REMARK  367  A    between atoms: CA_644  and  C_645
REMARK  368  A    between atoms: CA_644  and  CB_647
REMARK  369  A    between atoms: CB_647  and  CG_648
REMARK  370  A    between atoms: CG_648  and  CD_649
REMARK  371  A    between atoms: CD_649  and  NE_650
REMARK  372  A    between atoms: N_654  and  CA_655
REMARK  373  A    between atoms: CA_655  and  C_656
REMARK  374  A    between atoms: CA_655  and  CB_658
REMARK  375  A    between atoms: CB_658  and  CG1_659
REMARK  376  A    between atoms: CB_658  and  CG2_660
REMARK  377  A    between atoms: N_661  and  CA_662
REMARK  378  A    between atoms: CA_662  and  C_663
REMARK  379  A    between atoms: CA_662  and  CB_665
REMARK  380  A    between atoms: CB_665  and  CG_666
REMARK  381  A    between atoms: CZ_671  and  OH_672
REMARK  382  A    between atoms: N_673  and  CA_674
REMARK  383  A    between atoms: CA_674  and  C_675
REMARK  384  A    between atoms: CA_674  and  CB_677
REMARK  385  A    between atoms: CB_677  and  CG_678
REMARK  386  A    between atoms: CG_678  and  CD2_679
REMARK  387  A    between atoms: CG_678  and  CD1_680
REMARK  388  A    between atoms: N_681  and  CA_682
REMARK  389  A    between atoms: CA_682  and  C_683
REMARK  390  A    between atoms: CA_682  and  CB_685
REMARK  391  A    between atoms: CB_685  and  CG1_686
REMARK  392  A    between atoms: CB_685  and  CG2_687
REMARK  393  A    between atoms: CG1_686  and  CD1_688
REMARK  394  A    between atoms: N_689  and  CA_690
REMARK  395  A    between atoms: CA_690  and  C_691
REMARK  396  A    between atoms: CA_690  and  CB_693
REMARK  397  A    between atoms: CB_693  and  CG_694
REMARK  398  A    between atoms: CG_694  and  CD2_695
REMARK  399  A    between atoms: CG_694  and  CD1_696
REMARK  400  A    between atoms: N_697  and  CA_698
REMARK  401  A    between atoms: CA_698  and  C_699
REMARK  402  A    between atoms: CA_698  and  CB_701
REMARK  403  A    between atoms: CB_701  and  CG_702
REMARK  404  A    between atoms: CG_702  and  CD_703
REMARK  405  A    between atoms: N_706  and  CA_707
REMARK  406  A    between atoms: CA_707  and  C_708
REMARK  407  A    between atoms: CA_707  and  CB_710
REMARK  408  A    between atoms: CB_710  and  CG_711
REMARK  409  A    between atoms: CZ_716  and  OH_717
REMARK  410  A    between atoms: N_718  and  CA_719
REMARK  411  A    between atoms: CA_719  and  C_720
REMARK  412  A    between atoms: CA_719  and  CB_722
REMARK  413  A    between atoms: CA_724  and  C_725
REMARK  414  A    between atoms: N_730  and  CA_731
REMARK  415  A    between atoms: CA_731  and  C_732
REMARK  416  A    between atoms: CA_731  and  CB_734
REMARK  417  A    between atoms: CB_734  and  CG_735
REMARK  418  A    between atoms: CG_735  and  CD1_736
REMARK  419  A    between atoms: CG_735  and  CD2_737
REMARK  420  A    between atoms: N_738  and  CA_739
REMARK  421  A    between atoms: CA_739  and  C_740
REMARK  422  A    between atoms: N_742  and  CA_743
REMARK  423  A    between atoms: CA_743  and  C_744
REMARK  424  A    between atoms: CA_743  and  CB_746
REMARK  425  A    between atoms: CB_746  and  OG1_747
REMARK  426  A    between atoms: CB_746  and  CG2_748
REMARK  427  A    between atoms: N_749  and  CA_750
REMARK  428  A    between atoms: CA_750  and  C_751
REMARK  429  A    between atoms: CA_750  and  CB_753
REMARK  430  A    between atoms: CB_753  and  CG2_754
REMARK  431  A    between atoms: CB_753  and  CG1_755
REMARK  432  A    between atoms: N_756  and  CA_757
REMARK  433  A    between atoms: CA_757  and  C_758
REMARK  434  A    between atoms: CA_757  and  CB_760
REMARK  435  A    between atoms: CB_760  and  CG_761
REMARK  436  A    between atoms: CZ_766  and  OH_767
REMARK  437  A    between atoms: N_768  and  C_769
REMARK  438  A    between atoms: C_769  and  C_770
REMARK  439  A    between atoms: C_769  and  C_772
REMARK  440  A    between atoms: C_772  and  C_773
REMARK  441  A    between atoms: N_774  and  CA_775
REMARK  442  A    between atoms: CA_775  and  C_776
REMARK  443  A    between atoms: CA_775  and  CB_778
REMARK  444  A    between atoms: CB_778  and  CG_779
REMARK  445  A    between atoms: CG_779  and  CD_780
REMARK  446  A    between atoms: N_783  and  CA_784
REMARK  447  A    between atoms: CA_784  and  C_785
REMARK  448  A    between atoms: CA_784  and  CB_787
REMARK  449  A    between atoms: CB_787  and  CG_788
REMARK  450  A    between atoms: CG_788  and  CD2_789
REMARK  451  A    between atoms: CG_788  and  CD1_790
REMARK  452  A    between atoms: N_791  and  CA_792
REMARK  453  A    between atoms: CA_792  and  C_793
REMARK  454  A    between atoms: CA_792  and  CB_795
REMARK  455  A    between atoms: CB_795  and  CG_796
REMARK  456  A    between atoms: CG_796  and  CD_797
REMARK  457  A    between atoms: N_800  and  CA_801
REMARK  458  A    between atoms: CA_801  and  C_802
REMARK  459  A    between atoms: CA_801  and  CB_804
REMARK  460  A    between atoms: CB_804  and  CG_805
REMARK  461  A    between atoms: CG_805  and  CD_806
REMARK  462  A    between atoms: CD_806  and  CE_807
REMARK  463  A    between atoms: CE_807  and  NZ_808
REMARK  464  A    between atoms: N_809  and  CA_810
REMARK  465  A    between atoms: CA_810  and  C_811
REMARK  466  A    between atoms: CA_810  and  CB_813
REMARK  467  A    between atoms: CB_813  and  CG_814
REMARK  468  A    between atoms: CG_814  and  CD1_815
REMARK  469  A    between atoms: CG_814  and  CD2_816
REMARK  470  A    between atoms: N_817  and  CA_818
REMARK  471  A    between atoms: CA_818  and  C_819
REMARK  472  A    between atoms: CA_818  and  CB_821
REMARK  473  A    between atoms: CB_821  and  OG_822
REMARK  474  A    between atoms: N_823  and  CA_824
REMARK  475  A    between atoms: CA_824  and  C_825
REMARK  476  A    between atoms: CA_824  and  CB_827
REMARK  477  A    between atoms: CB_827  and  CG_828
REMARK  478  A    between atoms: CG_828  and  CD_829
REMARK  479  A    between atoms: CD_829  and  CE_830
REMARK  480  A    between atoms: CE_830  and  NZ_831
REMARK  481  A    between atoms: N_832  and  CA_833
REMARK  482  A    between atoms: CA_833  and  C_834
REMARK  483  A    between atoms: CA_833  and  CB_836
REMARK  484  A    between atoms: CB_836  and  CG_837
REMARK  485  A    between atoms: N_843  and  CA_844
REMARK  486  A    between atoms: CA_844  and  C_845
REMARK  487  A    between atoms: CA_844  and  CB_847
REMARK  488  A    between atoms: CB_847  and  CG_848
REMARK  489  A    between atoms: N_851  and  CA_852
REMARK  490  A    between atoms: CA_852  and  C_853
REMARK  491  A    between atoms: CA_852  and  CB_855
REMARK  492  A    between atoms: CB_855  and  CG_856
REMARK  493  A    between atoms: CG_856  and  CD_857
REMARK  494  A    between atoms: N_860  and  CA_861
REMARK  495  A    between atoms: CA_861  and  C_862
REMARK  496  A    between atoms: CA_861  and  CB_864
REMARK  497  A    between atoms: CB_864  and  CG_865
REMARK  498  A    between atoms: CG_865  and  CD_866
REMARK  499  A    between atoms: N_869  and  CA_870
REMARK  500  A    between atoms: CA_870  and  C_871
REMARK  501  A    between atoms: CA_870  and  CB_873
REMARK  502  A    between atoms: CB_873  and  CG_874
REMARK  503  A    between atoms: CG_874  and  CD_875
REMARK  504  A    between atoms: CD_875  and  NE_876
REMARK  505  A    between atoms: N_880  and  CA_881
REMARK  506  A    between atoms: CA_881  and  C_882
REMARK  507  A    between atoms: CA_881  and  CB_884
REMARK  508  A    between atoms: CB_884  and  OG1_885
REMARK  509  A    between atoms: CB_884  and  CG2_886
REMARK  510  A    between atoms: N_887  and  CA_888
REMARK  511  A    between atoms: CA_888  and  C_889
REMARK  512  A    between atoms: CA_888  and  CB_891
REMARK  513  A    between atoms: N_892  and  CA_893
REMARK  514  A    between atoms: CA_893  and  C_894
REMARK  515  A    between atoms: CA_893  and  CB_896
REMARK  516  A    between atoms: CB_896  and  OG1_897
REMARK  517  A    between atoms: CB_896  and  CG2_898
REMARK  518  A    between atoms: N_899  and  CA_900
REMARK  519  A    between atoms: CA_900  and  C_901
REMARK  520  A    between atoms: CA_900  and  CB_903
REMARK  521  A    between atoms: CB_903  and  CG_904
REMARK  522  A    between atoms: CZ_909  and  OH_910
REMARK  523  A    between atoms: N_911  and  CA_912
REMARK  524  A    between atoms: CA_912  and  C_913
REMARK  525  A    between atoms: CA_912  and  CB_915
REMARK  526  A    between atoms: CB_915  and  CG1_916
REMARK  527  A    between atoms: CB_915  and  CG2_917
REMARK  528  A    between atoms: CG1_916  and  CD1_918
REMARK  529  A    between atoms: N_919  and  CA_920
REMARK  530  A    between atoms: CA_920  and  C_921
REMARK  531  A    between atoms: CA_920  and  CB_923
REMARK  532  A    between atoms: CB_923  and  OG1_924
REMARK  533  A    between atoms: CB_923  and  CG2_925
REMARK  534  A    between atoms: N_926  and  CA_927
REMARK  535  A    between atoms: CA_927  and  C_928
REMARK  536  A    between atoms: CA_927  and  CB_930
REMARK  537  A    between atoms: CB_930  and  CG_931
REMARK  538  A    between atoms: CG_931  and  CD_932
REMARK  539  A    between atoms: N_935  and  CA_936
REMARK  540  A    between atoms: CA_936  and  C_937
REMARK  541  A    between atoms: CA_936  and  CB_939
REMARK  542  A    between atoms: CB_939  and  CG_940
REMARK  543  A    between atoms: CG_940  and  CD2_941
REMARK  544  A    between atoms: CG_940  and  CD1_942
REMARK  545  A    between atoms: N_943  and  CA_944
REMARK  546  A    between atoms: CA_944  and  C_945
REMARK  547  A    between atoms: CA_944  and  CB_947
REMARK  548  A    between atoms: N_948  and  CA_949
REMARK  549  A    between atoms: CA_949  and  C_950
REMARK  550  A    between atoms: CA_949  and  CB_952
REMARK  551  A    between atoms: CB_952  and  CG_953
REMARK  552  A    between atoms: N_956  and  CA_957
REMARK  553  A    between atoms: CA_957  and  C_958
REMARK  554  A    between atoms: CA_957  and  CB_960
REMARK  555  A    between atoms: N_961  and  CA_962
REMARK  556  A    between atoms: CA_962  and  C_963
REMARK  557  A    between atoms: CA_962  and  CB_965
REMARK  558  A    between atoms: CB_965  and  CG_966
REMARK  559  A    between atoms: CG_966  and  CD2_967
REMARK  560  A    between atoms: CG_966  and  CD1_968
REMARK  561  A    between atoms: N_969  and  CA_970
REMARK  562  A    between atoms: CA_970  and  C_971
REMARK  563  A    between atoms: CA_970  and  CB_973
REMARK  564  A    between atoms: CB_973  and  OG_974
REMARK  565  A    between atoms: N_975  and  CA_976
REMARK  566  A    between atoms: CA_976  and  C_977
REMARK  567  A    between atoms: CA_976  and  CB_979
REMARK  568  A    between atoms: CB_979  and  CG_980
REMARK  569  A    between atoms: CZ_985  and  OH_986
REMARK  570  A    between atoms: N_987  and  CA_988
REMARK  571  A    between atoms: CA_988  and  C_989
REMARK  572  A    between atoms: CA_988  and  CB_991
REMARK  573  A    between atoms: CB_991  and  SG_992
REMARK  574  A    between atoms: N_993  and  CA_994
REMARK  575  A    between atoms: CA_994  and  C_995
REMARK  576  A    between atoms: CA_994  and  CB_997
REMARK  577  A    between atoms: CB_997  and  CG_998
REMARK  578  A    between atoms: N_1003  and  C_1004
REMARK  579  A    between atoms: C_1004  and  C_1005
REMARK  580  A    between atoms: C_1004  and  C_1007
REMARK  581  A    between atoms: C_1007  and  O_1008
REMARK  582  A    between atoms: N_1009  and  C_1010
REMARK  583  A    between atoms: C_1010  and  C_1011
REMARK  584  A    between atoms: C_1010  and  C_1013
REMARK  585  A    between atoms: C_1013  and  C_1014
REMARK  586  A    between atoms: C_1014  and  C_1015
REMARK  587  A    between atoms: C_1015  and  C_1016
REMARK  588  A    between atoms: C_1016  and  N_1017
REMARK  589  A    between atoms: N_1018  and  C_1019
REMARK  590  A    between atoms: C_1020  and  C_1021
REMARK  591  A    between atoms: C_1020  and  C_1024
REMARK  592  A    between atoms: C_1023  and  C_1026
REMARK  593  A    between atoms: C_1025  and  C_1026
REMARK  594  A    between atoms: C_1027  and  N_1029
REMARK  595  A    between atoms: C_1028  and  N_1030
REMARK  596  A    between atoms: N_1037  and  C_1038
REMARK  597  A    between atoms: C_1038  and  C_1039
REMARK  598  A    between atoms: C_1038  and  C_1041
REMARK  599  A    between atoms: C_1041  and  C_1042
REMARK  600  A    between atoms: C_1041  and  C_1043
REMARK  601  A    between atoms: N_1044  and  C_1045
REMARK  602  A    between atoms: C_1045  and  C_1046
REMARK  603  A    between atoms: C_1045  and  C_1048
REMARK  604  A    between atoms: C_1048  and  C_1049
REMARK  605  A    between atoms: C_1048  and  C_1050
REMARK  606  A    between atoms: C_1049  and  C_1051
REMARK  607  A    between atoms: N_1052  and  C_1053
REMARK  608  A    between atoms: C_1053  and  C_1054
REMARK  609  A    between atoms: C_1053  and  C_1056
REMARK  610  A    between atoms: C_1056  and  C_1057
REMARK  611  A    between atoms: N_1062  and  C_1063
REMARK  612  A    between atoms: C_1063  and  C_1064
REMARK  613  A    between atoms: C_1063  and  C_1066
REMARK  614  A    between atoms: C_1066  and  C_1067
REMARK  615  A    between atoms: C_1067  and  C_1068
REMARK  616  A    between atoms: C_1068  and  N_1069
REMARK  617  A    between atoms: N_1073  and  C_1074
REMARK  618  A    between atoms: C_1074  and  C_1077
REMARK  619  A    between atoms: C_1077  and  C_1078
REMARK  620  A    between atoms: N_1081  and  C_1084
REMARK  621  A    between atoms: C_1083  and  C_1085
REMARK  622  A    between atoms: C_1085  and  C_1086
REMARK  623  A    between atoms: C_1085  and  O_1087
REMARK  624  A    between atoms: C_1085  and  N_1097
REMARK  625  A    between atoms: C_1089  and  C_1094
REMARK  626  A    between atoms: C_1090  and  C_1091
REMARK  627  A    between atoms: C_1093  and  C_1094
REMARK  628  A    between atoms: C_1098  and  C_1099
REMARK  629  A    between atoms: C_1098  and  C_1101
REMARK  630  A    between atoms: C_1101  and  C_1102
REMARK  631  A    between atoms: C_1102  and  C_1103
REMARK  632  A    between atoms: C_1103  and  C_1104
REMARK  633  A    between atoms: C_1104  and  N_1105
REMARK  634  A    between atoms: C_1107  and  C_1108
REMARK  635  A    between atoms: N_1113  and  CA_1114
REMARK  636  A    between atoms: CA_1114  and  C_1115
REMARK  637  A    between atoms: CA_1114  and  CB_1117
REMARK  638  A    between atoms: CB_1117  and  CG_1118
REMARK  639  A    between atoms: CG_1118  and  CD_1119
REMARK  640  A    between atoms: N_1122  and  CA_1123
REMARK  641  A    between atoms: CA_1123  and  C_1124
REMARK  642  A    between atoms: CA_1123  and  CB_1126
REMARK  643  A    between atoms: CB_1126  and  CG_1127
REMARK  644  A    between atoms: N_1130  and  CA_1131
REMARK  645  A    between atoms: CA_1131  and  C_1132
REMARK  646  A    between atoms: CA_1131  and  CB_1134
REMARK  647  A    between atoms: CB_1134  and  CG_1135
REMARK  648  A    between atoms: CG_1135  and  CD2_1136
REMARK  649  A    between atoms: CG_1135  and  CD1_1137
REMARK  650  A    between atoms: N_1138  and  CA_1139
REMARK  651  A    between atoms: CA_1139  and  C_1140
REMARK  652  A    between atoms: CA_1139  and  CB_1142
REMARK  653  A    between atoms: CB_1142  and  CG_1143
REMARK  654  A    between atoms: CG_1143  and  CD1_1144
REMARK  655  A    between atoms: CG_1143  and  CD2_1145
REMARK  656  A    between atoms: N_1146  and  CA_1147
REMARK  657  A    between atoms: CA_1147  and  C_1148
REMARK  658  A    between atoms: CA_1147  and  CB_1150
REMARK  659  A    between atoms: CB_1150  and  CG_1151
REMARK  660  A    between atoms: CG_1151  and  CD2_1152
REMARK  661  A    between atoms: CG_1151  and  CD1_1153
REMARK  662  A    between atoms: N_1154  and  CA_1155
REMARK  663  A    between atoms: CA_1155  and  C_1156
REMARK  664  A    between atoms: N_1158  and  CA_1159
REMARK  665  A    between atoms: CA_1159  and  C_1160
REMARK  666  A    between atoms: CA_1159  and  CB_1162
REMARK  667  A    between atoms: CB_1162  and  OG_1163
REMARK  668  A    between atoms: N_1164  and  CA_1165
REMARK  669  A    between atoms: CA_1165  and  C_1166
REMARK  670  A    between atoms: CA_1165  and  CB_1168
REMARK  671  A    between atoms: N_1169  and  CA_1170
REMARK  672  A    between atoms: CA_1170  and  C_1171
REMARK  673  A    between atoms: N_1173  and  CA_1174
REMARK  674  A    between atoms: CA_1174  and  C_1175
REMARK  675  A    between atoms: CA_1174  and  CB_1177
REMARK  676  A    between atoms: CB_1177  and  CG_1178
REMARK  677  A    between atoms: CG_1178  and  CD_1179
REMARK  678  A    between atoms: N_1182  and  CA_1183
REMARK  679  A    between atoms: CA_1183  and  C_1184
REMARK  680  A    between atoms: CA_1183  and  CB_1186
REMARK  681  A    between atoms: CB_1186  and  CG_1187
REMARK  682  A    between atoms: CG_1187  and  CD2_1188
REMARK  683  A    between atoms: CG_1187  and  CD1_1189
REMARK  684  A    between atoms: N_1190  and  CA_1191
REMARK  685  A    between atoms: CA_1191  and  C_1192
REMARK  686  A    between atoms: CA_1191  and  CB_1194
REMARK  687  A    between atoms: CB_1194  and  CG_1195
REMARK  688  A    between atoms: CG_1195  and  CD_1196
REMARK  689  A    between atoms: CD_1196  and  CE_1197
REMARK  690  A    between atoms: CE_1197  and  NZ_1198
REMARK  691  A    between atoms: N_1199  and  CA_1200
REMARK  692  A    between atoms: CA_1200  and  C_1201
REMARK  693  A    between atoms: CA_1200  and  CB_1203
REMARK  694  A    between atoms: CB_1203  and  CG1_1204
REMARK  695  A    between atoms: CB_1203  and  CG2_1205
REMARK  696  A    between atoms: CG1_1204  and  CD1_1206
REMARK  697  A    between atoms: N_1207  and  CA_1208
REMARK  698  A    between atoms: CA_1208  and  C_1209
REMARK  699  A    between atoms: CA_1208  and  CB_1211
REMARK  700  A    between atoms: N_1212  and  CA_1213
REMARK  701  A    between atoms: CA_1213  and  C_1214
REMARK  702  A    between atoms: CA_1213  and  CB_1216
REMARK  703  A    between atoms: CB_1216  and  CG_1217
REMARK  704  A    between atoms: N_1220  and  CA_1221
REMARK  705  A    between atoms: CA_1221  and  C_1222
REMARK  706  A    between atoms: CA_1221  and  CB_1224
REMARK  707  A    between atoms: CB_1224  and  CG_1225
REMARK  708  A    between atoms: N_1231  and  CA_1232
REMARK  709  A    between atoms: CA_1232  and  C_1233
REMARK  710  A    between atoms: N_1235  and  CA_1236
REMARK  711  A    between atoms: CA_1236  and  C_1237
REMARK  712  A    between atoms: CA_1236  and  CB_1239
REMARK  713  A    between atoms: CB_1239  and  CG_1240
REMARK  714  A    between atoms: N_1249  and  CA_1250
REMARK  715  A    between atoms: CA_1250  and  C_1251
REMARK  716  A    between atoms: CA_1250  and  CB_1253
REMARK  717  A    between atoms: CB_1253  and  OG_1254
REMARK  718  A    between atoms: N_1255  and  CA_1256
REMARK  719  A    between atoms: CA_1256  and  C_1257
REMARK  720  A    between atoms: CA_1256  and  CB_1259
REMARK  721  A    between atoms: CB_1259  and  CG2_1260
REMARK  722  A    between atoms: CB_1259  and  CG1_1261
REMARK  723  A    between atoms: N_1262  and  CA_1263
REMARK  724  A    between atoms: CA_1263  and  C_1264
REMARK  725  A    between atoms: CA_1263  and  CB_1266
REMARK  726  A    between atoms: CB_1266  and  CG_1267
REMARK  727  A    between atoms: N_1272  and  CA_1273
REMARK  728  A    between atoms: CA_1273  and  C_1274
REMARK  729  A    between atoms: CA_1273  and  CB_1276
REMARK  730  A    between atoms: CA_1278  and  C_1279
REMARK  731  A    between atoms: N_1284  and  CA_1285
REMARK  732  A    between atoms: CA_1285  and  C_1286
REMARK  733  A    between atoms: CA_1285  and  CB_1288
REMARK  734  A    between atoms: CB_1288  and  OG_1289
REMARK  735  A    between atoms: N_1290  and  CA_1291
REMARK  736  A    between atoms: CA_1291  and  C_1292
REMARK  737  A    between atoms: CA_1291  and  CB_1294
REMARK  738  A    between atoms: CB_1294  and  OG_1295
REMARK  739  A    between atoms: N_1296  and  C_1297
REMARK  740  A    between atoms: C_1297  and  C_1298
REMARK  741  A    between atoms: C_1297  and  C_1300
REMARK  742  A    between atoms: C_1300  and  C_1301
REMARK  743  A    between atoms: C_1301  and  C_1302
REMARK  744  A    between atoms: N_1303  and  CA_1304
REMARK  745  A    between atoms: CA_1304  and  C_1305
REMARK  746  A    between atoms: CA_1304  and  CB_1307
REMARK  747  A    between atoms: CB_1307  and  CG_1308
REMARK  748  A    between atoms: CG_1308  and  CD_1309
REMARK  749  A    between atoms: CD_1309  and  NE_1310
REMARK  750  A    between atoms: N_1314  and  CA_1315
REMARK  751  A    between atoms: CA_1315  and  C_1316
REMARK  752  A    between atoms: CA_1315  and  CB_1318
REMARK  753  A    between atoms: CB_1318  and  OG1_1319
REMARK  754  A    between atoms: CB_1318  and  CG2_1320
REMARK  755  A    between atoms: N_1321  and  C_1322
REMARK  756  A    between atoms: C_1322  and  C_1323
REMARK  757  A    between atoms: C_1322  and  C_1325
REMARK  758  A    between atoms: C_1325  and  C_1326
REMARK  759  A    between atoms: C_1326  and  C_1327
REMARK  760  A    between atoms: C_1326  and  C_1328
REMARK  761  A    between atoms: N_1329  and  C_1330
REMARK  762  A    between atoms: C_1330  and  C_1331
REMARK  763  A    between atoms: C_1330  and  C_1333
REMARK  764  A    between atoms: N_1334  and  C_1335
REMARK  765  A    between atoms: C_1335  and  C_1336
REMARK  766  A    between atoms: N_1338  and  C_1339
REMARK  767  A    between atoms: C_1339  and  C_1340
REMARK  768  A    between atoms: C_1339  and  C_1342
REMARK  769  A    between atoms: C_1342  and  O_1343
REMARK  770  A    between atoms: C_1342  and  C_1344
REMARK  771  A    between atoms: N_1345  and  C_1346
REMARK  772  A    between atoms: C_1346  and  C_1347
REMARK  773  A    between atoms: C_1346  and  C_1349
REMARK  774  A    between atoms: C_1349  and  C_1350
REMARK  775  A    between atoms: C_1350  and  C_1351
REMARK  776  A    between atoms: C_1350  and  C_1352
REMARK  777  A    between atoms: N_1353  and  C_1354
REMARK  778  A    between atoms: C_1354  and  C_1355
REMARK  779  A    between atoms: C_1354  and  C_1357
REMARK  780  A    between atoms: C_1357  and  C_1358
REMARK  781  A    between atoms: N_1361  and  C_1362
REMARK  782  A    between atoms: C_1362  and  C_1363
REMARK  783  A    between atoms: C_1362  and  C_1365
REMARK  784  A    between atoms: C_1365  and  C_1366
REMARK  785  A    between atoms: C_1371  and  O_1372
REMARK  786  A    between atoms: N_1373  and  C_1374
REMARK  787  A    between atoms: C_1374  and  C_1375
REMARK  788  A    between atoms: C_1374  and  C_1377
REMARK  789  A    between atoms: C_1377  and  C_1378
REMARK  790  A    between atoms: C_1378  and  C_1379
REMARK  791  A    between atoms: C_1378  and  C_1380
REMARK  792  A    between atoms: C_1382  and  C_1383
REMARK  793  A    between atoms: C_1389  and  C_1390
REMARK  794  A    between atoms: N_1395  and  C_1396
REMARK  795  A    between atoms: C_1396  and  C_1399
REMARK  796  A    between atoms: C_1399  and  C_1400
REMARK  797  A    between atoms: C_1400  and  C_1401
REMARK  798  A    between atoms: N_1405  and  C_1406
REMARK  799  A    between atoms: C_1407  and  C_1412
REMARK  800  A    between atoms: C_1408  and  O_1410
REMARK  801  A    between atoms: C_1409  and  O_1411
REMARK  802  A    between atoms: O_1410  and  O_1411
REMARK  803  A    between atoms: C_1412  and  C_1414
REMARK  804  A    between atoms: C_1413  and  C_1415
REMARK  805  A    between atoms: S_1416  and  C_1418
REMARK  806  A    between atoms: S_1417  and  C_1419
REMARK  807  A    between atoms: C_1418  and  C_1419
REMARK  808  A    between atoms: N_1420  and  CA_1421
REMARK  809  A    between atoms: CA_1421  and  C_1422
REMARK  810  A    between atoms: CA_1421  and  CB_1424
REMARK  811  A    between atoms: CB_1424  and  CG1_1425
REMARK  812  A    between atoms: CB_1424  and  CG2_1426
REMARK  813  A    between atoms: CG1_1425  and  CD1_1427
REMARK  814  A    between atoms: N_1428  and  CA_1429
REMARK  815  A    between atoms: CA_1429  and  C_1430
REMARK  816  A    between atoms: CA_1429  and  CB_1432
REMARK  817  A    between atoms: CB_1432  and  CG_1433
REMARK  818  A    between atoms: CG_1433  and  CD_1434
REMARK  819  A    between atoms: N_1437  and  CA_1438
REMARK  820  A    between atoms: CA_1438  and  C_1439
REMARK  821  A    between atoms: N_1441  and  CA_1442
REMARK  822  A    between atoms: CA_1442  and  C_1443
REMARK  823  A    between atoms: CA_1442  and  CB_1445
REMARK  824  A    between atoms: CB_1445  and  CG_1446
REMARK  825  A    between atoms: CG_1446  and  CD_1447
REMARK  826  A    between atoms: CD_1447  and  NE_1448
REMARK  827  A    between atoms: N_1452  and  C_1453
REMARK  828  A    between atoms: C_1453  and  C_1454
REMARK  829  A    between atoms: C_1453  and  C_1456
REMARK  830  A    between atoms: C_1456  and  C_1457
REMARK  831  A    between atoms: C_1457  and  S_1458
REMARK  832  A    between atoms: N_1459  and  CA_1460
REMARK  833  A    between atoms: CA_1460  and  C_1461
REMARK  834  A    between atoms: CA_1460  and  CB_1463
REMARK  835  A    between atoms: CB_1463  and  CG_1464
REMARK  836  A    between atoms: N_1469  and  CA_1470
REMARK  837  A    between atoms: CA_1470  and  C_1471
REMARK  838  A    between atoms: CA_1470  and  CB_1473
REMARK  839  A    between atoms: CB_1473  and  CG_1474
REMARK  840  A    between atoms: N_1477  and  CA_1478
REMARK  841  A    between atoms: CA_1478  and  C_1479
REMARK  842  A    between atoms: CA_1478  and  CB_1481
REMARK  843  A    between atoms: CB_1481  and  CG_1482
REMARK  844  A    between atoms: CG_1482  and  CD_1483
REMARK  845  A    between atoms: N_1486  and  CA_1487
REMARK  846  A    between atoms: CA_1487  and  C_1488
REMARK  847  A    between atoms: CA_1487  and  CB_1490
REMARK  848  A    between atoms: CB_1490  and  CG_1491
REMARK  849  A    between atoms: CG_1491  and  CD_1492
REMARK  850  A    between atoms: CD_1492  and  CE_1493
REMARK  851  A    between atoms: CE_1493  and  NZ_1494
REMARK  852  A    between atoms: N_1495  and  CA_1496
REMARK  853  A    between atoms: CA_1496  and  C_1497
REMARK  854  A    between atoms: CA_1496  and  CB_1499
REMARK  855  A    between atoms: CB_1499  and  CG2_1500
REMARK  856  A    between atoms: CB_1499  and  CG1_1501
REMARK  857  A    between atoms: N_1502  and  CA_1503
REMARK  858  A    between atoms: CA_1503  and  C_1504
REMARK  859  A    between atoms: CA_1503  and  CB_1506
REMARK  860  A    between atoms: CB_1506  and  CG_1507
REMARK  861  A    between atoms: N_1510  and  CA_1511
REMARK  862  A    between atoms: CA_1511  and  C_1512
REMARK  863  A    between atoms: CA_1511  and  CB_1514
REMARK  864  A    between atoms: CB_1514  and  CG_1515
REMARK  865  A    between atoms: CG_1515  and  CD2_1516
REMARK  866  A    between atoms: CG_1515  and  CD1_1517
REMARK  867  A    between atoms: N_1518  and  CA_1519
REMARK  868  A    between atoms: CA_1519  and  C_1520
REMARK  869  A    between atoms: CA_1519  and  CB_1522
REMARK  870  A    between atoms: CB_1522  and  CG_1523
REMARK  871  A    between atoms: N_1532  and  CA_1533
REMARK  872  A    between atoms: CA_1533  and  C_1534
REMARK  873  A    between atoms: CA_1533  and  CB_1536
REMARK  874  A    between atoms: CB_1536  and  OG_1537
REMARK  875  A    between atoms: N_1538  and  CA_1539
REMARK  876  A    between atoms: CA_1539  and  C_1540
REMARK  877  A    between atoms: CA_1539  and  CB_1542
REMARK  878  A    between atoms: CB_1542  and  CG_1543
REMARK  879  A    between atoms: CG_1543  and  CD2_1544
REMARK  880  A    between atoms: CG_1543  and  CD1_1545
REMARK  881  A    between atoms: N_1546  and  CA_1547
REMARK  882  A    between atoms: CA_1547  and  C_1548
REMARK  883  A    between atoms: N_1550  and  CA_1551
REMARK  884  A    between atoms: CA_1551  and  C_1552
REMARK  885  A    between atoms: CA_1551  and  CB_1554
REMARK  886  A    between atoms: CB_1554  and  CG2_1555
REMARK  887  A    between atoms: CB_1554  and  CG1_1556
REMARK  888  A    between atoms: N_1557  and  CA_1558
REMARK  889  A    between atoms: CA_1558  and  C_1559
REMARK  890  A    between atoms: CA_1558  and  CB_1561
REMARK  891  A    between atoms: CB_1561  and  CG_1562
REMARK  892  A    between atoms: CG_1562  and  CD1_1563
REMARK  893  A    between atoms: CG_1562  and  CD2_1564
REMARK  894  A    between atoms: N_1565  and  CA_1566
REMARK  895  A    between atoms: CA_1566  and  C_1567
REMARK  896  A    between atoms: CA_1566  and  CB_1569
REMARK  897  A    between atoms: CB_1569  and  SG_1570
REMARK  898  A    between atoms: N_1571  and  CA_1572
REMARK  899  A    between atoms: CA_1572  and  C_1573
REMARK  900  A    between atoms: CA_1572  and  CB_1575
REMARK  901  A    between atoms: CB_1575  and  CG_1576
REMARK  902  A    between atoms: CZ_1581  and  OH_1582
REMARK  903  A    between atoms: N_1583  and  CA_1584
REMARK  904  A    between atoms: CA_1584  and  C_1585
REMARK  905  A    between atoms: CA_1584  and  CB_1587
REMARK  906  A    between atoms: CB_1587  and  CG_1588
REMARK  907  A    between atoms: CG_1588  and  CD_1589
REMARK  908  A    between atoms: N_1592  and  CA_1593
REMARK  909  A    between atoms: CA_1593  and  C_1594
REMARK  910  A    between atoms: CA_1593  and  CB_1596
REMARK  911  A    between atoms: CB_1596  and  CG_1597
REMARK  912  A    between atoms: N_1603  and  CA_1604
REMARK  913  A    between atoms: CA_1604  and  C_1605
REMARK  914  A    between atoms: CA_1604  and  CB_1607
REMARK  915  A    between atoms: CB_1607  and  CG_1608
REMARK  916  A    between atoms: CG_1608  and  CD1_1609
REMARK  917  A    between atoms: CG_1608  and  CD2_1610
REMARK  918  A    between atoms: N_1611  and  CA_1612
REMARK  919  A    between atoms: CA_1612  and  C_1613
REMARK  920  A    between atoms: CA_1612  and  CB_1615
REMARK  921  A    between atoms: CB_1615  and  CG2_1616
REMARK  922  A    between atoms: CB_1615  and  CG1_1617
REMARK  923  A    between atoms: N_1618  and  CA_1619
REMARK  924  A    between atoms: CA_1619  and  C_1620
REMARK  925  A    between atoms: N_1622  and  C_1623
REMARK  926  A    between atoms: C_1623  and  C_1624
REMARK  927  A    between atoms: C_1623  and  C_1626
REMARK  928  A    between atoms: C_1626  and  C_1627
REMARK  929  A    between atoms: C_1627  and  C_1628
REMARK  930  A    between atoms: CA_1630  and  C_1631
REMARK  931  A    between atoms: CA_1637  and  C_1638
REMARK  932  A    between atoms: N_1643  and  CA_1644
REMARK  933  A    between atoms: CA_1644  and  C_1645
REMARK  934  A    between atoms: CA_1644  and  CB_1647
REMARK  935  A    between atoms: CB_1647  and  CG_1648
REMARK  936  A    between atoms: N_1654  and  CA_1655
REMARK  937  A    between atoms: CA_1655  and  C_1656
REMARK  938  A    between atoms: CA_1655  and  CB_1658
REMARK  939  A    between atoms: CB_1658  and  CG_1659
REMARK  940  A    between atoms: CG_1659  and  CD_1660
REMARK  941  A    between atoms: N_1663  and  CA_1664
REMARK  942  A    between atoms: CA_1664  and  C_1665
REMARK  943  A    between atoms: CA_1664  and  CB_1667
REMARK  944  A    between atoms: N_1668  and  CA_1669
REMARK  945  A    between atoms: CA_1669  and  C_1670
REMARK  946  A    between atoms: CA_1669  and  CB_1672
REMARK  947  A    between atoms: CB_1672  and  CG_1673
REMARK  948  A    between atoms: N_1676  and  CA_1677
REMARK  949  A    between atoms: CA_1677  and  C_1678
REMARK  950  A    between atoms: CA_1677  and  CB_1680
REMARK  951  A    between atoms: CB_1680  and  OG1_1681
REMARK  952  A    between atoms: CB_1680  and  CG2_1682
REMARK  953  A    between atoms: N_1683  and  CA_1684
REMARK  954  A    between atoms: CA_1684  and  C_1685
REMARK  955  A    between atoms: CA_1684  and  CB_1687
REMARK  956  A    between atoms: CB_1687  and  CG_1688
REMARK  957  A    between atoms: CZ_1693  and  OH_1694
REMARK  958  A    between atoms: N_1695  and  CA_1696
REMARK  959  A    between atoms: CA_1696  and  C_1697
REMARK  960  A    between atoms: CA_1696  and  CB_1699
REMARK  961  A    between atoms: CB_1699  and  CG_1700
REMARK  962  A    between atoms: CG_1700  and  CD_1701
REMARK  963  A    between atoms: N_1704  and  CA_1705
REMARK  964  A    between atoms: CA_1705  and  C_1706
REMARK  965  A    between atoms: CA_1705  and  CB_1708
REMARK  966  A    between atoms: CB_1708  and  CG_1709
REMARK  967  A    between atoms: CG_1709  and  CD_1710
REMARK  968  A    between atoms: N_1713  and  CA_1714
REMARK  969  A    between atoms: CA_1714  and  C_1715
REMARK  970  A    between atoms: CA_1714  and  CB_1717
REMARK  971  A    between atoms: CB_1717  and  OG1_1718
REMARK  972  A    between atoms: CB_1717  and  CG2_1719
REMARK  973  A    between atoms: N_1720  and  CA_1721
REMARK  974  A    between atoms: CA_1721  and  C_1722
REMARK  975  A    between atoms: CA_1721  and  CB_1724
REMARK  976  A    between atoms: CB_1724  and  CG_1725
REMARK  977  A    between atoms: CZ_1730  and  OH_1731
REMARK  978  A    between atoms: N_1732  and  CA_1733
REMARK  979  A    between atoms: CA_1733  and  C_1734
REMARK  980  A    between atoms: CA_1733  and  CB_1736
REMARK  981  A    between atoms: CB_1736  and  SG_1737
REMARK  982  A    between atoms: N_1738  and  C_1739
REMARK  983  A    between atoms: C_1739  and  C_1740
REMARK  984  A    between atoms: C_1739  and  C_1742
REMARK  985  A    between atoms: C_1742  and  C_1743
REMARK  986  A    between atoms: C_1743  and  C_1744
REMARK  987  A    between atoms: C_1744  and  N_1745
REMARK  988  A    between atoms: N_1746  and  CA_1747
REMARK  989  A    between atoms: CA_1747  and  C_1748
REMARK  990  A    between atoms: CA_1747  and  CB_1750
REMARK  991  A    between atoms: CB_1750  and  CG1_1751
REMARK  992  A    between atoms: CB_1750  and  CG2_1752
REMARK  993  A    between atoms: CG1_1751  and  CD1_1753
REMARK  994  A    between atoms: N_1754  and  C_1755
REMARK  995  A    between atoms: C_1755  and  C_1756
REMARK  996  A    between atoms: C_1755  and  C_1758
REMARK  997  A    between atoms: C_1758  and  O_1759
REMARK  998  A    between atoms: N_1760  and  C_1761
REMARK  999  A    between atoms: C_1761  and  C_1762
REMARK  1000  A    between atoms: C_1761  and  C_1764
REMARK  1001  A    between atoms: C_1764  and  C_1765
REMARK  1002  A    between atoms: C_1765  and  C_1766
REMARK  1003  A    between atoms: C_1766  and  N_1767
REMARK  1004  A    between atoms: N_1771  and  C_1772
REMARK  1005  A    between atoms: C_1772  and  C_1773
REMARK  1006  A    between atoms: C_1772  and  C_1775
REMARK  1007  A    between atoms: C_1775  and  C_1776
REMARK  1008  A    between atoms: C_1775  and  C_1777
REMARK  1009  A    between atoms: N_1778  and  C_1779
REMARK  1010  A    between atoms: C_1779  and  C_1780
REMARK  1011  A    between atoms: C_1779  and  C_1782
REMARK  1012  A    between atoms: C_1782  and  C_1783
REMARK  1013  A    between atoms: C_1783  and  C_1784
REMARK  1014  A    between atoms: N_1787  and  C_1788
REMARK  1015  A    between atoms: C_1788  and  C_1789
REMARK  1016  A    between atoms: C_1788  and  C_1791
REMARK  1017  A    between atoms: C_1791  and  C_1792
REMARK  1018  A    between atoms: N_1798  and  C_1799
REMARK  1019  A    between atoms: C_1799  and  C_1800
REMARK  1020  A    between atoms: C_1799  and  C_1802
REMARK  1021  A    between atoms: C_1802  and  O_1803
REMARK  1022  A    between atoms: C_1802  and  C_1804
REMARK  1023  A    between atoms: N_1805  and  C_1806
REMARK  1024  A    between atoms: C_1806  and  C_1807
REMARK  1025  A    between atoms: C_1806  and  C_1809
REMARK  1026  A    between atoms: C_1809  and  C_1810
REMARK  1027  A    between atoms: C_1817  and  C_1818
REMARK  1028  A    between atoms: N_1823  and  C_1824
REMARK  1029  A    between atoms: C_1824  and  C_1825
REMARK  1030  A    between atoms: C_1824  and  C_1827
REMARK  1031  A    between atoms: C_1827  and  C_1828
REMARK  1032  A    between atoms: N_1831  and  C_1832
REMARK  1033  A    between atoms: C_1832  and  C_1833
REMARK  1034  A    between atoms: C_1832  and  C_1835
REMARK  1035  A    between atoms: C_1835  and  C_1836
REMARK  1036  A    between atoms: N_1842  and  C_1843
REMARK  1037  A    between atoms: C_1843  and  C_1844
REMARK  1038  A    between atoms: C_1843  and  C_1846
REMARK  1039  A    between atoms: C_1846  and  C_1847
REMARK  1040  A    between atoms: C_1846  and  C_1848
REMARK  1041  A    between atoms: N_1849  and  C_1850
REMARK  1042  A    between atoms: C_1850  and  C_1851
REMARK  1043  A    between atoms: C_1850  and  C_1853
REMARK  1044  A    between atoms: C_1853  and  O_1854
REMARK  1045  A    between atoms: C_1853  and  C_1855
REMARK  1046  A    between atoms: N_1856  and  C_1857
REMARK  1047  A    between atoms: C_1858  and  C_1859
REMARK  1048  A    between atoms: C_1858  and  C_1861
REMARK  1049  A    between atoms: C_1862  and  C_1863
REMARK  1050  A    between atoms: C_1862  and  C_1864
REMARK  1051  A    between atoms: C_1863  and  C_1865
REMARK  1052  A    between atoms: N_1871  and  C_1872
REMARK  1053  A    between atoms: C_1872  and  C_1873
REMARK  1054  A    between atoms: N_1875  and  CA_1876
REMARK  1055  A    between atoms: CA_1876  and  C_1877
REMARK  1056  A    between atoms: CA_1876  and  CB_1879
REMARK  1057  A    between atoms: N_1880  and  CA_1881
REMARK  1058  A    between atoms: CA_1881  and  C_1882
REMARK  1059  A    between atoms: CA_1881  and  CB_1884
REMARK  1060  A    between atoms: CB_1884  and  CG_1885
REMARK  1061  A    between atoms: CG_1885  and  CD_1886
REMARK  1062  A    between atoms: CD_1886  and  NE_1887
REMARK  1063  A    between atoms: N_1891  and  CA_1892
REMARK  1064  A    between atoms: CA_1892  and  C_1893
REMARK  1065  A    between atoms: CA_1892  and  CB_1895
REMARK  1066  A    between atoms: CB_1895  and  CG_1896
REMARK  1067  A    between atoms: N_1899  and  CA_1900
REMARK  1068  A    between atoms: CA_1900  and  C_1901
REMARK  1069  A    between atoms: CA_1900  and  CB_1903
REMARK  1070  A    between atoms: CB_1903  and  CG_1904
REMARK  1071  A    between atoms: CG_1904  and  CD1_1905
REMARK  1072  A    between atoms: CG_1904  and  CD2_1906
REMARK  1073  A    between atoms: N_1907  and  CA_1908
REMARK  1074  A    between atoms: CA_1908  and  C_1909
REMARK  1075  A    between atoms: CA_1908  and  CB_1911
REMARK  1076  A    between atoms: CB_1911  and  CG1_1912
REMARK  1077  A    between atoms: CB_1911  and  CG2_1913
REMARK  1078  A    between atoms: CG1_1912  and  CD1_1914
REMARK  1079  A    between atoms: N_1915  and  CA_1916
REMARK  1080  A    between atoms: CA_1916  and  C_1917
REMARK  1081  A    between atoms: CA_1916  and  CB_1919
REMARK  1082  A    between atoms: CB_1919  and  OG_1920
REMARK  1083  A    between atoms: N_1921  and  CA_1922
REMARK  1084  A    between atoms: CA_1922  and  C_1923
REMARK  1085  A    between atoms: CA_1922  and  CB_1925
REMARK  1086  A    between atoms: CB_1925  and  CG_1926
REMARK  1087  A    between atoms: CG_1926  and  CD_1927
REMARK  1088  A    between atoms: CD_1927  and  NE_1928
REMARK  1089  A    between atoms: N_1932  and  CA_1933
REMARK  1090  A    between atoms: CA_1933  and  C_1934
REMARK  1091  A    between atoms: CA_1933  and  CB_1936
REMARK  1092  A    between atoms: CB_1936  and  CG_1937
REMARK  1093  A    between atoms: CG_1937  and  CD2_1938
REMARK  1094  A    between atoms: CG_1937  and  CD1_1939
REMARK  1095  A    between atoms: N_1940  and  CA_1941
REMARK  1096  A    between atoms: CA_1941  and  C_1942
REMARK  1097  A    between atoms: CA_1941  and  CB_1944
REMARK  1098  A    between atoms: CB_1944  and  CG_1945
REMARK  1099  A    between atoms: CG_1945  and  CD2_1946
REMARK  1100  A    between atoms: CG_1945  and  CD1_1947
REMARK  1101  A    between atoms: N_1948  and  CA_1949
REMARK  1102  A    between atoms: CA_1949  and  C_1950
REMARK  1103  A    between atoms: CA_1949  and  CB_1952
REMARK  1104  A    between atoms: CB_1952  and  CG_1953
REMARK  1105  A    between atoms: CG_1953  and  CD_1954
REMARK  1106  A    between atoms: CD_1954  and  CE_1955
REMARK  1107  A    between atoms: CE_1955  and  NZ_1956
REMARK  1108  A    between atoms: N_1957  and  CA_1958
REMARK  1109  A    between atoms: CA_1958  and  C_1959
REMARK  1110  A    between atoms: CA_1958  and  CB_1961
REMARK  1111  A    between atoms: CB_1961  and  CG_1962
REMARK  1112  A    between atoms: N_1967  and  CA_1968
REMARK  1113  A    between atoms: CA_1968  and  C_1969
REMARK  1114  A    between atoms: CA_1968  and  CB_1971
REMARK  1115  A    between atoms: CB_1971  and  CG_1972
REMARK  1116  A    between atoms: CA_1976  and  C_1977
REMARK  1117  A    between atoms: N_1982  and  C_1983
REMARK  1118  A    between atoms: C_1983  and  C_1984
REMARK  1119  A    between atoms: C_1983  and  C_1986
REMARK  1120  A    between atoms: C_1986  and  O_1987
REMARK  1121  A    between atoms: N_1988  and  C_1989
REMARK  1122  A    between atoms: C_1989  and  C_1990
REMARK  1123  A    between atoms: C_1989  and  C_1992
REMARK  1124  A    between atoms: C_1992  and  C_1993
REMARK  1125  A    between atoms: C_1993  and  C_1994
REMARK  1126  A    between atoms: N_1997  and  C_1998
REMARK  1127  A    between atoms: C_1998  and  C_1999
REMARK  1128  A    between atoms: C_1998  and  C_2001
REMARK  1129  A    between atoms: C_2001  and  C_2002
REMARK  1130  A    between atoms: C_2002  and  C_2003
REMARK  1131  A    between atoms: C_2003  and  N_2004
REMARK  1132  A    between atoms: C_2009  and  C_2010
REMARK  1133  A    between atoms: N_2015  and  C_2017
REMARK  1134  A    between atoms: C_2016  and  C_2018
REMARK  1135  A    between atoms: C_2016  and  C_2021
REMARK  1136  A    between atoms: C_2021  and  C_2022
REMARK  1137  A    between atoms: C_2022  and  C_2023
REMARK  1138  A    between atoms: C_2023  and  S_2024
REMARK  1139  A    between atoms: C_2023  and  S_2025
REMARK  1140  A    between atoms: S_2024  and  C_2026
REMARK  1141  A    between atoms: S_2025  and  C_2027
REMARK  1142  A    between atoms: N_2028  and  CA_2029
REMARK  1143  A    between atoms: CA_2029  and  C_2030
REMARK  1144  A    between atoms: CA_2029  and  CB_2032
REMARK  1145  A    between atoms: CB_2032  and  CG_2033
REMARK  1146  A    between atoms: CG_2033  and  CD1_2034
REMARK  1147  A    between atoms: CG_2033  and  CD2_2035
REMARK  1148  A    between atoms: N_2036  and  CA_2037
REMARK  1149  A    between atoms: CA_2037  and  C_2038
REMARK  1150  A    between atoms: CA_2037  and  CB_2040
REMARK  1151  A    between atoms: N_2041  and  CA_2042
REMARK  1152  A    between atoms: CA_2042  and  C_2043
REMARK  1153  A    between atoms: CA_2042  and  CB_2045
REMARK  1154  A    between atoms: CB_2045  and  CG_2046
REMARK  1155  A    between atoms: CG_2046  and  CD_2047
REMARK  1156  A    between atoms: N_2050  and  CA_2051
REMARK  1157  A    between atoms: CA_2051  and  C_2052
REMARK  1158  A    between atoms: CA_2051  and  CB_2054
REMARK  1159  A    between atoms: CB_2054  and  CG2_2055
REMARK  1160  A    between atoms: CB_2054  and  CG1_2056
REMARK  1161  A    between atoms: N_2057  and  CA_2058
REMARK  1162  A    between atoms: CA_2058  and  C_2059
REMARK  1163  A    between atoms: CA_2058  and  CB_2061
REMARK  1164  A    between atoms: CB_2061  and  CG_2062
REMARK  1165  A    between atoms: CG_2062  and  CD1_2063
REMARK  1166  A    between atoms: CG_2062  and  CD2_2064
REMARK  1167  A    between atoms: N_2065  and  CA_2066
REMARK  1168  A    between atoms: CA_2066  and  C_2067
REMARK  1169  A    between atoms: CA_2066  and  CB_2069
REMARK  1170  A    between atoms: CB_2069  and  CG_2070
REMARK  1171  A    between atoms: CG_2070  and  CD_2071
REMARK  1172  A    between atoms: N_2074  and  CA_2075
REMARK  1173  A    between atoms: CA_2075  and  C_2076
REMARK  1174  A    between atoms: CA_2075  and  CB_2078
REMARK  1175  A    between atoms: CB_2078  and  CG_2079
REMARK  1176  A    between atoms: CA_2085  and  C_2086
REMARK  1177  A    between atoms: N_2091  and  CA_2092
REMARK  1178  A    between atoms: CA_2092  and  C_2093
REMARK  1179  A    between atoms: CA_2092  and  CB_2095
REMARK  1180  A    between atoms: CB_2095  and  CG_2096
REMARK  1181  A    between atoms: N_2105  and  CA_2106
REMARK  1182  A    between atoms: CA_2106  and  C_2107
REMARK  1183  A    between atoms: CA_2106  and  CB_2109
REMARK  1184  A    between atoms: CB_2109  and  CG1_2110
REMARK  1185  A    between atoms: CB_2109  and  CG2_2111
REMARK  1186  A    between atoms: CG1_2110  and  CD1_2112
REMARK  1187  A    between atoms: N_2113  and  CA_2114
REMARK  1188  A    between atoms: CA_2114  and  C_2115
REMARK  1189  A    between atoms: CA_2114  and  CB_2117
REMARK  1190  A    between atoms: CB_2117  and  OG1_2118
REMARK  1191  A    between atoms: CB_2117  and  CG2_2119
REMARK  1192  A    between atoms: N_2120  and  CA_2121
REMARK  1193  A    between atoms: CA_2121  and  C_2122
REMARK  1194  A    between atoms: CA_2121  and  CB_2124
REMARK  1195  A    between atoms: N_2125  and  CA_2126
REMARK  1196  A    between atoms: CA_2126  and  C_2127
REMARK  1197  A    between atoms: CA_2126  and  CB_2129
REMARK  1198  A    between atoms: CB_2129  and  CG_2130
REMARK  1199  A    between atoms: N_2133  and  CA_2134
REMARK  1200  A    between atoms: CA_2134  and  C_2135
REMARK  1201  A    between atoms: CA_2134  and  CB_2137
REMARK  1202  A    between atoms: CB_2137  and  OG_2138
REMARK  1203  A    between atoms: N_2139  and  CA_2140
REMARK  1204  A    between atoms: CA_2140  and  C_2141
REMARK  1205  A    between atoms: CA_2140  and  CB_2143
REMARK  1206  A    between atoms: CB_2143  and  OG_2144
REMARK  1207  A    between atoms: N_2145  and  C_2146
REMARK  1208  A    between atoms: C_2146  and  C_2147
REMARK  1209  A    between atoms: C_2146  and  C_2149
REMARK  1210  A    between atoms: C_2149  and  C_2150
REMARK  1211  A    between atoms: N_2151  and  CA_2152
REMARK  1212  A    between atoms: CA_2152  and  C_2153
REMARK  1213  A    between atoms: CA_2152  and  CB_2155
REMARK  1214  A    between atoms: CB_2155  and  OG_2156
REMARK  1215  A    between atoms: N_2157  and  CA_2158
REMARK  1216  A    between atoms: CA_2158  and  C_2159
REMARK  1217  A    between atoms: CA_2158  and  CB_2161
REMARK  1218  A    between atoms: CB_2161  and  CG_2162
REMARK  1219  A    between atoms: CG_2162  and  CD_2163
REMARK  1220  A    between atoms: CA_2167  and  C_2168
REMARK  1221  A    between atoms: CA_2174  and  C_2175
REMARK  1222  A    between atoms: N_2180  and  CA_2181
REMARK  1223  A    between atoms: CA_2181  and  C_2182
REMARK  1224  A    between atoms: CA_2181  and  CB_2184
REMARK  1225  A    between atoms: CB_2184  and  OG_2185
REMARK  1226  A    between atoms: N_2186  and  CA_2187
REMARK  1227  A    between atoms: CA_2187  and  C_2188
REMARK  1228  A    between atoms: CA_2187  and  CB_2190
REMARK  1229  A    between atoms: CB_2190  and  CG_2191
REMARK  1230  A    between atoms: N_2200  and  CA_2201
REMARK  1231  A    between atoms: CA_2201  and  C_2202
REMARK  1232  A    between atoms: CA_2201  and  CB_2204
REMARK  1233  A    between atoms: CB_2204  and  CG2_2205
REMARK  1234  A    between atoms: CB_2204  and  CG1_2206
REMARK  1235  A    between atoms: N_2207  and  CA_2208
REMARK  1236  A    between atoms: CA_2208  and  C_2209
REMARK  1237  A    between atoms: CA_2208  and  CB_2211
REMARK  1238  A    between atoms: CB_2211  and  OG1_2212
REMARK  1239  A    between atoms: CB_2211  and  CG2_2213
REMARK  1240  A    between atoms: N_2214  and  CA_2215
REMARK  1241  A    between atoms: CA_2215  and  C_2216
REMARK  1242  A    between atoms: CA_2215  and  CB_2218
REMARK  1243  A    between atoms: CB_2218  and  CG_2219
REMARK  1244  A    between atoms: CG_2219  and  CD_2220
REMARK  1245  A    between atoms: N_2223  and  CA_2224
REMARK  1246  A    between atoms: CA_2224  and  C_2225
REMARK  1247  A    between atoms: CA_2224  and  CB_2227
REMARK  1248  A    between atoms: CB_2227  and  CG_2228
REMARK  1249  A    between atoms: CG_2228  and  SD_2229
REMARK  1250  A    between atoms: SD_2229  and  CE_2230
REMARK  1251  A    between atoms: N_2231  and  CA_2232
REMARK  1252  A    between atoms: CA_2232  and  C_2233
REMARK  1253  A    between atoms: CA_2232  and  CB_2235
REMARK  1254  A    between atoms: CB_2235  and  CG_2236
REMARK  1255  A    between atoms: CG_2236  and  CD1_2237
REMARK  1256  A    between atoms: CG_2236  and  CD2_2238
REMARK  1257  A    between atoms: N_2239  and  CA_2240
REMARK  1258  A    between atoms: CA_2240  and  C_2241
REMARK  1259  A    between atoms: CA_2240  and  CB_2243
REMARK  1260  A    between atoms: CB_2243  and  CG_2244
REMARK  1261  A    between atoms: CG_2244  and  CD1_2245
REMARK  1262  A    between atoms: CG_2244  and  CD2_2246
REMARK  1263  A    between atoms: N_2247  and  CA_2248
REMARK  1264  A    between atoms: CA_2248  and  C_2249
REMARK  1265  A    between atoms: CA_2248  and  CB_2251
REMARK  1266  A    between atoms: CB_2251  and  CG_2252
REMARK  1267  A    between atoms: CG_2252  and  CD_2253
REMARK  1268  A    between atoms: N_2256  and  CA_2257
REMARK  1269  A    between atoms: CA_2257  and  C_2258
REMARK  1270  A    between atoms: CA_2257  and  CB_2260
REMARK  1271  A    between atoms: CB_2260  and  CG_2261
REMARK  1272  A    between atoms: CG_2261  and  CD_2262
REMARK  1273  A    between atoms: CD_2262  and  CE_2263
REMARK  1274  A    between atoms: CE_2263  and  NZ_2264
REMARK  1275  A    between atoms: N_2265  and  C_2266
REMARK  1276  A    between atoms: C_2266  and  C_2267
REMARK  1277  A    between atoms: C_2266  and  C_2269
REMARK  1278  A    between atoms: C_2269  and  C_2270
REMARK  1279  A    between atoms: N_2271  and  CA_2272
REMARK  1280  A    between atoms: CA_2272  and  C_2273
REMARK  1281  A    between atoms: CA_2272  and  CB_2275
REMARK  1282  A    between atoms: CB_2275  and  CG_2276
REMARK  1283  A    between atoms: CG_2276  and  CD2_2277
REMARK  1284  A    between atoms: CG_2276  and  CD1_2278
REMARK  1285  A    between atoms: N_2279  and  CA_2280
REMARK  1286  A    between atoms: CA_2280  and  C_2281
REMARK  1287  A    between atoms: CA_2280  and  CB_2283
REMARK  1288  A    between atoms: CB_2283  and  CG_2284
REMARK  1289  A    between atoms: N_2293  and  CA_2294
REMARK  1290  A    between atoms: CA_2294  and  C_2295
REMARK                            x       y       z     vdW  Elec       q    Type
REMARK                         _______ _______ _______ _____ _____    ______ ____
ROOT
ATOM      1  CA  LEU M   9     -54.340  42.900  10.725  0.00  0.00    +0.159 C 
ENDROOT
BRANCH   1   2
ATOM      2  C   LEU M   9     -55.834  42.818  10.488  0.00  0.00    +0.234 C 
ATOM      3  O   LEU M   9     -56.610  42.614  11.417  0.00  0.00    -0.274 OA
ATOM      4  N   LYS M  10     -56.257  43.000   9.240  0.00  0.00    -0.302 N 
ATOM      5  H   LYS M  10     -55.606  43.217   8.534  0.00  0.00    +0.150 HD
BRANCH   4   6
ATOM      6  CA  LYS M  10     -57.668  42.883   8.902  0.00  0.00    +0.159 C 
BRANCH   6   7
ATOM      7  C   LYS M  10     -57.932  41.471   8.409  0.00  0.00    +0.234 C 
ATOM      8  O   LYS M  10     -57.159  40.929   7.616  0.00  0.00    -0.274 OA
ATOM      9  N   HIS M  11     -59.032  40.883   8.870  0.00  0.00    -0.302 N 
ATOM     10  H   HIS M  11     -59.611  41.350   9.515  0.00  0.00    +0.150 HD
BRANCH   9  11
ATOM     11  CA  HIS M  11     -59.373  39.545   8.413  0.00  0.00    +0.164 C 
BRANCH  11  12
ATOM     12  C   HIS M  11     -59.518  39.519   6.893  0.00  0.00    +0.234 C 
ATOM     13  O   HIS M  11     -59.012  38.608   6.226  0.00  0.00    -0.274 OA
ATOM     14  N   ASN M  12     -60.179  40.524   6.329  0.00  0.00    -0.302 N 
ATOM     15  H   ASN M  12     -60.545  41.233   6.906  0.00  0.00    +0.150 HD
BRANCH  14  16
ATOM     16  CA  ASN M  12     -60.383  40.617   4.885  0.00  0.00    +0.168 C 
BRANCH  16  17
ATOM     17  C   ASN M  12     -59.081  41.046   4.220  0.00  0.00    +0.237 C 
ATOM     18  O   ASN M  12     -58.641  42.189   4.411  0.00  0.00    -0.274 OA
ATOM     19  N   PRO M  13     -58.438  40.171   3.438  0.00  0.00    -0.288 N 
ATOM     20  CA  PRO M  13     -57.153  40.552   2.820  0.00  0.00    +0.162 C 
ATOM     21  CB  PRO M  13     -56.807  39.346   1.930  0.00  0.00    +0.033 C 
ATOM     22  CG  PRO M  13     -57.725  38.234   2.369  0.00  0.00    +0.021 C 
ATOM     23  CD  PRO M  13     -58.923  38.853   2.989  0.00  0.00    +0.109 C 
BRANCH  20  24
ATOM     24  C   PRO M  13     -57.234  41.834   2.015  0.00  0.00    +0.234 C 
ATOM     25  O   PRO M  13     -56.295  42.632   2.058  0.00  0.00    -0.274 OA
ATOM     26  N   UNK M  14     -58.348  42.070   1.309  0.00  0.00    -0.301 N 
ATOM     27  H   UNK M  14     -59.096  41.432   1.360  0.00  0.00    +0.150 HD
BRANCH  26  28
ATOM     28  C   UNK M  14     -58.473  43.253   0.468  0.00  0.00    +0.184 C 
BRANCH  28  29
ATOM     29  C   UNK M  14     -58.609  44.540   1.263  0.00  0.00    +0.236 C 
ATOM     30  O   UNK M  14     -58.447  45.618   0.685  0.00  0.00    -0.274 OA
ATOM     31  N   UNK M  14     -58.896  44.463   2.558  0.00  0.00    -0.302 N 
ATOM     32  H   UNK M  14     -59.085  43.587   2.967  0.00  0.00    +0.150 HD
BRANCH  31  33
ATOM     33  C   UNK M  14     -58.933  45.668   3.376  0.00  0.00    +0.159 C 
BRANCH  33  34
ATOM     34  C   UNK M  14     -57.557  46.067   3.885  0.00  0.00    +0.234 C 
ATOM     35  O   UNK M  14     -57.382  47.195   4.368  0.00  0.00    -0.274 OA
ATOM     36  N   UNK M  14     -56.573  45.191   3.752  0.00  0.00    -0.302 N 
ATOM     37  H   UNK M  14     -56.753  44.304   3.364  0.00  0.00    +0.150 HD
BRANCH  36  38
ATOM     38  C   UNK M  14     -55.229  45.538   4.178  0.00  0.00    +0.159 C 
BRANCH  38  39
ATOM     39  C   UNK M  14     -54.642  46.573   3.222  0.00  0.00    +0.237 C 
ATOM     40  O   UNK M  14     -54.900  46.526   2.013  0.00  0.00    -0.274 OA
ATOM     41  N   UNK M  14     -53.886  47.535   3.731  0.00  0.00    -0.288 N 
ATOM     42  C   UNK M  14     -53.376  48.601   2.865  0.00  0.00    +0.162 C 
ATOM     43  C   UNK M  14     -52.725  49.580   3.845  0.00  0.00    +0.033 C 
ATOM     44  C   UNK M  14     -52.365  48.744   5.016  0.00  0.00    +0.021 C 
ATOM     45  C   UNK M  14     -53.433  47.678   5.123  0.00  0.00    +0.109 C 
BRANCH  42  46
ATOM     46  C   UNK M  14     -52.355  48.074   1.874  0.00  0.00    +0.233 C 
ATOM     47  O   UNK M  14     -51.768  47.007   2.053  0.00  0.00    -0.274 OA
ATOM     48  N   UNK M  14     -52.197  48.815   0.783  0.00  0.00    -0.317 N 
ATOM     49  C   UNK M  14     -51.100  48.549  -0.129  0.00  0.00    +0.128 C 
ATOM     50  H   UNK M  14     -52.827  49.548   0.592  0.00  0.00    +0.148 HD
ENDBRANCH  42  46
ENDBRANCH  38  39
BRANCH  38  51
ATOM     51  C   UNK M  14     -54.343  44.287   4.245  0.00  0.00    +0.035 C 
BRANCH  51  52
ATOM     52  C   UNK M  14     -54.874  43.247   5.215  0.00  0.00    +0.039 C 
BRANCH  52  53
ATOM     53  C   UNK M  14     -54.066  41.924   5.212  0.00  0.00    +0.196 C 
BRANCH  53  54
ATOM     54  N   UNK M  14     -54.888  40.872   5.794  0.00  0.00    -0.279 N 
ATOM     55  C   UNK M  14     -54.904  39.606   5.406  0.00  0.00    +0.341 C 
ATOM     56  N   UNK M  14     -54.035  39.143   4.516  0.00  0.00    -0.292 N 
ATOM     57  N   UNK M  14     -55.841  38.793   5.899  0.00  0.00    -0.292 N 
ATOM     58  H   UNK M  14     -55.482  41.123   6.538  0.00  0.00    +0.258 HD
ATOM     59  H   UNK M  14     -53.342  39.738   4.149  0.00  0.00    +0.255 HD
ATOM     60  H   UNK M  14     -54.084  38.204   4.223  0.00  0.00    +0.255 HD
ATOM     61  H   UNK M  14     -55.869  37.849   5.622  0.00  0.00    +0.255 HD
ATOM     62  H   UNK M  14     -56.504  39.138   6.539  0.00  0.00    +0.255 HD
ENDBRANCH  53  54
ENDBRANCH  52  53
ENDBRANCH  51  52
ENDBRANCH  38  51
ENDBRANCH  36  38
ENDBRANCH  33  34
BRANCH  33  63
ATOM     63  C   UNK M  14     -59.907  45.461   4.537  0.00  0.00    +0.041 C 
BRANCH  63  64
ATOM     64  C   UNK M  14     -61.340  45.584   4.058  0.00  0.00    +0.098 C 
BRANCH  64  65
ATOM     65  C   UNK M  14     -62.326  45.111   5.073  0.00  0.00    +0.211 C 
ATOM     66  O   UNK M  14     -61.975  44.893   6.237  0.00  0.00    -0.276 OA
ATOM     67  N   UNK M  14     -63.577  44.938   4.647  0.00  0.00    -0.329 N 
ATOM     68  H   UNK M  14     -63.808  45.126   3.708  0.00  0.00    +0.145 HD
ATOM     69  H   UNK M  14     -64.270  44.623   5.271  0.00  0.00    +0.145 HD
ENDBRANCH  64  65
ENDBRANCH  63  64
ENDBRANCH  33  63
ENDBRANCH  31  33
ENDBRANCH  28  29
BRANCH  28  70
ATOM     70  C   UNK M  14     -59.665  43.112  -0.472  0.00  0.00    +0.187 C 
BRANCH  70  71
ATOM     71  O   UNK M  14     -59.371  42.168  -1.477  0.00  0.00    -0.393 OA
ATOM     72  H   UNK M  14     -59.184  41.308  -1.068  0.00  0.00    +0.209 HD
ENDBRANCH  70  71
ENDBRANCH  28  70
ENDBRANCH  26  28
ENDBRANCH  20  24
ENDBRANCH  16  17
BRANCH  16  73
ATOM     73  CB  ASN M  12     -61.493  41.614   4.559  0.00  0.00    +0.127 C 
BRANCH  73  74
ATOM     74  CG  ASN M  12     -61.883  41.609   3.077  0.00  0.00    +0.213 C 
ATOM     75  OD1 ASN M  12     -61.042  41.462   2.196  0.00  0.00    -0.276 OA
ATOM     76  ND2 ASN M  12     -63.163  41.775   2.809  0.00  0.00    -0.329 N 
ATOM     77  H   ASN M  12     -63.474  41.781   1.875  0.00  0.00    +0.145 HD
ATOM     78  H   ASN M  12     -63.808  41.893   3.543  0.00  0.00    +0.145 HD
ENDBRANCH  73  74
ENDBRANCH  16  73
ENDBRANCH  14  16
ENDBRANCH  11  12
BRANCH  11  79
ATOM     79  CB  HIS M  11     -60.659  39.086   9.107  0.00  0.00    +0.084 C 
BRANCH  79  80
ATOM     80  CG  HIS M  11     -61.054  37.680   8.789  0.00  0.00    +0.044 C 
ATOM     81  ND1 HIS M  11     -61.656  37.327   7.599  0.00  0.00    -0.243 NA
ATOM     82  CD2 HIS M  11     -60.950  36.539   9.513  0.00  0.00    +0.194 C 
ATOM     83  CE1 HIS M  11     -61.905  36.029   7.603  0.00  0.00    +0.215 C 
ATOM     84  NE2 HIS M  11     -61.475  35.525   8.748  0.00  0.00    -0.266 NA
ENDBRANCH  79  80
ENDBRANCH  11  79
ENDBRANCH   9  11
ENDBRANCH   6   7
BRANCH   6  85
ATOM     85  CB  LYS M  10     -58.064  43.898   7.827  0.00  0.00    +0.032 C 
BRANCH  85  86
ATOM     86  CG  LYS M  10     -58.100  45.327   8.363  0.00  0.00    +0.007 C 
BRANCH  86  87
ATOM     87  CD  LYS M  10     -59.315  45.529   9.264  0.00  0.00    +0.051 C 
BRANCH  87  88
ATOM     88  CE  LYS M  10     -59.810  46.954   9.219  0.00  0.00    +0.127 C 
BRANCH  88  89
ATOM     89  NZ  LYS M  10     -59.402  47.644  10.461  0.00  0.00    +0.219 N 
ATOM     90  H   LYS M  10     -59.804  47.162  11.265  0.00  0.00    +0.199 HD
ATOM     91  H   LYS M  10     -59.736  48.607  10.440  0.00  0.00    +0.199 HD
ATOM     92  H   LYS M  10     -58.385  47.639  10.535  0.00  0.00    +0.199 HD
ENDBRANCH  88  89
ENDBRANCH  87  88
ENDBRANCH  86  87
ENDBRANCH  85  86
ENDBRANCH   6  85
ENDBRANCH   4   6
ENDBRANCH   1   2
BRANCH   1  95
ATOM     93  C   LEU M   8     -53.289  44.203   8.963  0.00  0.00    +0.234 C 
ATOM     94  O   LEU M   8     -53.348  43.241   8.194  0.00  0.00    -0.274 OA
ATOM     95  N   LEU M   9     -53.780  44.142  10.194  0.00  0.00    -0.302 N 
ATOM     96  H   LEU M   9     -53.767  44.947  10.760  0.00  0.00    +0.150 HD
BRANCH  93  97
ATOM     97  CA  LEU M   8     -52.654  45.521   8.514  0.00  0.00    +0.159 C 
BRANCH  97 100
ATOM     98  C   ARG M   7     -54.537  47.062   8.609  0.00  0.00    +0.234 C 
ATOM     99  O   ARG M   7     -55.094  46.486   7.668  0.00  0.00    -0.274 OA
ATOM    100  N   LEU M   8     -53.354  46.670   9.086  0.00  0.00    -0.302 N 
ATOM    101  H   LEU M   8     -52.946  47.162   9.835  0.00  0.00    +0.150 HD
BRANCH  98 102
ATOM    102  CA  ARG M   7     -55.199  48.273   9.261  0.00  0.00    +0.159 C 
BRANCH 102 105
ATOM    103  C   SER M   6     -55.425  47.427  11.524  0.00  0.00    +0.236 C 
ATOM    104  O   SER M   6     -56.205  46.543  11.142  0.00  0.00    -0.274 OA
ATOM    105  N   ARG M   7     -54.917  48.338  10.691  0.00  0.00    -0.302 N 
ATOM    106  H   ARG M   7     -54.348  49.059  11.044  0.00  0.00    +0.150 HD
BRANCH 103 107
ATOM    107  CA  SER M   6     -55.041  47.534  12.994  0.00  0.00    +0.184 C 
BRANCH 107 110
ATOM    108  C   ILE M   5     -52.653  47.168  12.697  0.00  0.00    +0.234 C 
ATOM    109  O   ILE M   5     -52.861  46.092  12.121  0.00  0.00    -0.274 OA
ATOM    110  N   SER M   6     -53.648  47.936  13.159  0.00  0.00    -0.301 N 
ATOM    111  H   SER M   6     -53.437  48.782  13.616  0.00  0.00    +0.150 HD
BRANCH 108 112
ATOM    112  CA  ILE M   5     -51.234  47.670  12.924  0.00  0.00    +0.162 C 
BRANCH 112 115
ATOM    113  C   LEU M   4     -51.373  49.559  11.400  0.00  0.00    +0.234 C 
ATOM    114  O   LEU M   4     -51.707  48.808  10.473  0.00  0.00    -0.274 OA
ATOM    115  N   ILE M   5     -51.144  49.104  12.638  0.00  0.00    -0.302 N 
ATOM    116  H   ILE M   5     -50.914  49.735  13.358  0.00  0.00    +0.150 HD
BRANCH 113 117
ATOM    117  CA  LEU M   4     -51.139  51.042  11.150  0.00  0.00    +0.159 C 
BRANCH 117 120
ATOM    118  C   ASP M   3     -53.128  51.811  12.311  0.00  0.00    +0.234 C 
ATOM    119  O   ASP M   3     -53.851  51.062  11.638  0.00  0.00    -0.274 OA
ATOM    120  N   LEU M   4     -51.803  51.867  12.151  0.00  0.00    -0.302 N 
ATOM    121  H   LEU M   4     -51.269  52.472  12.715  0.00  0.00    +0.150 HD
BRANCH 118 122
ATOM    122  CA  ASP M   3     -53.721  52.708  13.382  0.00  0.00    +0.164 C 
BRANCH 122 125
ATOM    123  C   ARG M   2     -52.999  51.344  15.247  0.00  0.00    +0.234 C 
ATOM    124  O   ARG M   2     -53.545  50.349  14.754  0.00  0.00    -0.274 OA
ATOM    125  N   ASP M   3     -53.026  52.537  14.652  0.00  0.00    -0.302 N 
ATOM    126  H   ASP M   3     -52.575  53.305  15.072  0.00  0.00    +0.150 HD
BRANCH 123 127
ATOM    127  CA  ARG M   2     -52.274  51.254  16.583  0.00  0.00    +0.159 C 
BRANCH 127 130
ATOM    128  C   ALA M   1     -50.091  51.725  15.634  0.00  0.00    +0.234 C 
ATOM    129  O   ALA M   1     -50.205  50.785  14.835  0.00  0.00    -0.274 OA
ATOM    130  N   ARG M   2     -51.020  51.998  16.549  0.00  0.00    -0.302 N 
ATOM    131  H   ARG M   2     -50.858  52.710  17.210  0.00  0.00    +0.150 HD
BRANCH 128 132
ATOM    132  CA  ALA M   1     -48.862  52.632  15.604  0.00  0.00    +0.156 C 
ATOM    133  CB  ALA M   1     -47.868  52.241  16.696  0.00  0.00    +0.038 C 
BRANCH 132 136
ATOM    134  C   UNK M   0     -49.993  54.627  14.827  0.00  0.00    +0.231 C 
ATOM    135  O   UNK M   0     -50.327  54.045  13.787  0.00  0.00    -0.274 OA
ATOM    136  N   ALA M   1     -49.247  54.034  15.760  0.00  0.00    -0.303 N 
ATOM    137  H   ALA M   1     -48.956  54.540  16.553  0.00  0.00    +0.149 HD
BRANCH 134 138
ATOM    138  C   UNK M   0     -50.402  56.072  15.078  0.00  0.00    +0.200 C 
BRANCH 138 141
ATOM    139  C   UNK M   0     -51.912  55.730  16.936  0.00  0.00    +0.213 C 
ATOM    140  O   UNK M   0     -52.610  54.979  16.246  0.00  0.00    -0.276 OA
ATOM    141  N   UNK M   0     -50.812  56.314  16.455  0.00  0.00    -0.307 N 
ATOM    142  H   UNK M   0     -50.278  56.908  17.031  0.00  0.00    +0.149 HD
BRANCH 139 143
ATOM    143  C   UNK M   0     -52.284  56.042  18.380  0.00  0.00    +0.092 C 
ATOM    144  C   UNK M   0     -53.076  57.288  18.553  0.00  0.00    +0.013 C 
ENDBRANCH 139 143
ENDBRANCH 138 141
ENDBRANCH 134 138
ENDBRANCH 132 136
ENDBRANCH 128 132
ENDBRANCH 127 130
BRANCH 127 145
ATOM    145  CB  ARG M   2     -53.173  51.805  17.692  0.00  0.00    +0.035 C 
BRANCH 145 146
ATOM    146  CG  ARG M   2     -52.924  51.223  19.060  0.00  0.00    +0.039 C 
BRANCH 146 147
ATOM    147  CD  ARG M   2     -53.709  52.017  20.076  0.00  0.00    +0.196 C 
BRANCH 147 148
ATOM    148  NE  ARG M   2     -53.053  52.039  21.374  0.00  0.00    -0.279 N 
ATOM    149  CZ  ARG M   2     -53.587  51.570  22.492  0.00  0.00    +0.341 C 
ATOM    150  NH1 ARG M   2     -54.822  51.078  22.518  0.00  0.00    -0.292 N 
ATOM    151  NH2 ARG M   2     -52.875  51.619  23.616  0.00  0.00    -0.292 N 
ATOM    152  H   ARG M   2     -52.151  52.429  21.425  0.00  0.00    +0.258 HD
ATOM    153  H   ARG M   2     -55.354  51.039  21.690  0.00  0.00    +0.255 HD
ATOM    154  H   ARG M   2     -55.205  50.753  23.365  0.00  0.00    +0.255 HD
ATOM    155  H   ARG M   2     -51.960  51.982  23.604  0.00  0.00    +0.255 HD
ATOM    156  H   ARG M   2     -53.264  51.292  24.459  0.00  0.00    +0.255 HD
ENDBRANCH 147 148
ENDBRANCH 146 147
ENDBRANCH 145 146
ENDBRANCH 127 145
ENDBRANCH 123 127
ENDBRANCH 122 125
BRANCH 122 157
ATOM    157  CB  ASP M   3     -53.667  54.163  12.935  0.00  0.00    +0.083 C 
BRANCH 157 158
ATOM    158  CG  ASP M   3     -54.479  54.400  11.679  0.00  0.00    +0.044 C 
ATOM    159  OD2 ASP M   3     -55.699  54.581  11.815  0.00  0.00    -0.550 OA
ATOM    160  OD1 ASP M   3     -53.908  54.383  10.566  0.00  0.00    -0.550 OA
ENDBRANCH 157 158
ENDBRANCH 122 157
ENDBRANCH 118 122
ENDBRANCH 117 120
BRANCH 117 161
ATOM    161  CB  LEU M   4     -49.640  51.334  11.140  0.00  0.00    +0.034 C 
BRANCH 161 162
ATOM    162  CG  LEU M   4     -48.839  50.451  10.176  0.00  0.00    -0.015 C 
ATOM    163  CD1 LEU M   4     -49.387  50.643   8.762  0.00  0.00    +0.007 C 
ATOM    164  CD2 LEU M   4     -47.375  50.825  10.219  0.00  0.00    +0.007 C 
ENDBRANCH 161 162
ENDBRANCH 117 161
ENDBRANCH 113 117
ENDBRANCH 112 115
BRANCH 112 165
ATOM    165  CB  ILE M   5     -50.762  47.377  14.358  0.00  0.00    +0.015 C 
ATOM    166  CG2 ILE M   5     -51.089  45.937  14.746  0.00  0.00    +0.010 C 
BRANCH 165 167
ATOM    167  CG1 ILE M   5     -49.253  47.642  14.472  0.00  0.00    +0.002 C 
ATOM    168  CD1 ILE M   5     -48.758  47.642  15.900  0.00  0.00    +0.004 C 
ENDBRANCH 165 167
ENDBRANCH 112 165
ENDBRANCH 108 112
ENDBRANCH 107 110
BRANCH 107 169
ATOM    169  CB  SER M   6     -55.959  48.522  13.708  0.00  0.00    +0.187 C 
BRANCH 169 170
ATOM    170  OG  SER M   6     -55.805  48.377  15.101  0.00  0.00    -0.393 OA
ATOM    171  H   SER M   6     -56.037  47.471  15.359  0.00  0.00    +0.209 HD
ENDBRANCH 169 170
ENDBRANCH 107 169
ENDBRANCH 103 107
ENDBRANCH 102 105
BRANCH 102 172
ATOM    172  CB  ARG M   7     -54.735  49.560   8.572  0.00  0.00    +0.035 C 
BRANCH 172 173
ATOM    173  CG  ARG M   7     -55.638  50.768   8.789  0.00  0.00    +0.039 C 
BRANCH 173 174
ATOM    174  CD  ARG M   7     -54.897  52.055   8.483  0.00  0.00    +0.196 C 
BRANCH 174 175
ATOM    175  NE  ARG M   7     -54.907  52.321   7.045  0.00  0.00    -0.279 N 
ATOM    176  CZ  ARG M   7     -54.335  53.367   6.457  0.00  0.00    +0.341 C 
ATOM    177  NH2 ARG M   7     -53.805  54.355   7.162  0.00  0.00    -0.292 N 
ATOM    178  NH1 ARG M   7     -54.303  53.429   5.125  0.00  0.00    -0.292 N 
ATOM    179  H   ARG M   7     -55.374  51.675   6.467  0.00  0.00    +0.258 HD
ATOM    180  H   ARG M   7     -53.387  55.119   6.702  0.00  0.00    +0.255 HD
ATOM    181  H   ARG M   7     -53.829  54.326   8.146  0.00  0.00    +0.255 HD
ATOM    182  H   ARG M   7     -54.693  52.701   4.589  0.00  0.00    +0.255 HD
ATOM    183  H   ARG M   7     -53.889  54.202   4.678  0.00  0.00    +0.255 HD
ENDBRANCH 174 175
ENDBRANCH 173 174
ENDBRANCH 172 173
ENDBRANCH 102 172
ENDBRANCH  98 102
ENDBRANCH  97 100
BRANCH  97 184
ATOM    184  CB  LEU M   8     -51.174  45.563   8.910  0.00  0.00    +0.034 C 
BRANCH 184 185
ATOM    185  CG  LEU M   8     -50.337  46.649   8.219  0.00  0.00    -0.015 C 
ATOM    186  CD2 LEU M   8     -49.020  46.878   8.952  0.00  0.00    +0.007 C 
ATOM    187  CD1 LEU M   8     -50.103  46.299   6.752  0.00  0.00    +0.007 C 
ENDBRANCH 184 185
ENDBRANCH  97 184
ENDBRANCH  93  97
ENDBRANCH   1  95
BRANCH   1 188
ATOM    188  CB  LEU M   9     -54.022  42.778  12.209  0.00  0.00    +0.034 C 
BRANCH 188 189
ATOM    189  CG  LEU M   9     -52.502  42.693  12.449  0.00  0.00    -0.015 C 
ATOM    190  CD2 LEU M   9     -52.248  42.569  13.933  0.00  0.00    +0.007 C 
ATOM    191  CD1 LEU M   9     -51.849  41.520  11.681  0.00  0.00    +0.007 C 
ENDBRANCH 188 189
ENDBRANCH   1 188
TORSDOF 73
REMARK  Name = /Users/wangyang/Desktop/Breast_cancer_brain_metastasis/wang_Gene/AIDD/15_Protein_ligand_docking/data_7ztl/protein.pdb
REMARK  1290 active torsions:
REMARK  status: ('A' for Active; 'I' for Inactive)
REMARK    1  A    between atoms: N_1  and  CA_2
REMARK    2  A    between atoms: CA_2  and  C_3
REMARK    3  A    between atoms: N_5  and  CA_6
REMARK    4  A    between atoms: CA_6  and  C_7
REMARK    5  A    between atoms: CA_6  and  CB_9
REMARK    6  A    between atoms: N_10  and  CA_11
REMARK    7  A    between atoms: CA_11  and  C_12
REMARK    8  A    between atoms: CA_11  and  CB_14
REMARK    9  A    between atoms: CB_14  and  CG_15
REMARK   10  A    between atoms: N_24  and  CA_25
REMARK   11  A    between atoms: CA_25  and  C_26
REMARK   12  A    between atoms: CA_25  and  CB_28
REMARK   13  A    between atoms: N_29  and  CA_30
REMARK   14  A    between atoms: CA_30  and  C_31
REMARK   15  A    between atoms: CA_30  and  CB_33
REMARK   16  A    between atoms: CB_33  and  CG_34
REMARK   17  A    between atoms: CG_34  and  CD1_35
REMARK   18  A    between atoms: CG_34  and  CD2_36
REMARK   19  A    between atoms: N_37  and  CA_38
REMARK   20  A    between atoms: CA_38  and  C_39
REMARK   21  A    between atoms: CA_38  and  CB_41
REMARK   22  A    between atoms: CB_41  and  CG_42
REMARK   23  A    between atoms: CG_42  and  CD_43
REMARK   24  A    between atoms: N_46  and  CA_47
REMARK   25  A    between atoms: CA_47  and  C_48
REMARK   26  A    between atoms: CA_47  and  CB_50
REMARK   27  A    between atoms: CB_50  and  CG_51
REMARK   28  A    between atoms: N_54  and  CA_55
REMARK   29  A    between atoms: CA_55  and  C_56
REMARK   30  A    between atoms: CA_55  and  CB_58
REMARK   31  A    between atoms: CB_58  and  CG_59
REMARK   32  A    between atoms: N_65  and  CA_66
REMARK   33  A    between atoms: CA_66  and  C_67
REMARK   34  A    between atoms: CA_66  and  CB_69
REMARK   35  A    between atoms: CB_69  and  CG_70
REMARK   36  A    between atoms: CG_70  and  CD_71
REMARK   37  A    between atoms: N_74  and  CA_75
REMARK   38  A    between atoms: CA_75  and  C_76
REMARK   39  A    between atoms: CA_75  and  CB_78
REMARK   40  A    between atoms: CB_78  and  CG1_79
REMARK   41  A    between atoms: CB_78  and  CG2_80
REMARK   42  A    between atoms: CG1_79  and  CD1_81
REMARK   43  A    between atoms: N_82  and  CA_83
REMARK   44  A    between atoms: CA_83  and  C_84
REMARK   45  A    between atoms: N_86  and  CA_87
REMARK   46  A    between atoms: CA_87  and  C_88
REMARK   47  A    between atoms: CA_87  and  CB_90
REMARK   48  A    between atoms: CB_90  and  CG_91
REMARK   49  A    between atoms: CG_91  and  CD_92
REMARK   50  A    between atoms: CD_92  and  NE_93
REMARK   51  A    between atoms: CA_98  and  C_99
REMARK   52  A    between atoms: N_104  and  CA_105
REMARK   53  A    between atoms: CA_105  and  C_106
REMARK   54  A    between atoms: CA_105  and  CB_108
REMARK   55  A    between atoms: CB_108  and  CG_109
REMARK   56  A    between atoms: CG_109  and  CD1_110
REMARK   57  A    between atoms: CG_109  and  CD2_111
REMARK   58  A    between atoms: N_112  and  CA_113
REMARK   59  A    between atoms: CA_113  and  C_114
REMARK   60  A    between atoms: N_116  and  C_117
REMARK   61  A    between atoms: C_117  and  C_118
REMARK   62  A    between atoms: C_117  and  C_120
REMARK   63  A    between atoms: C_120  and  C_121
REMARK   64  A    between atoms: C_121  and  C_122
REMARK   65  A    between atoms: N_123  and  CA_124
REMARK   66  A    between atoms: CA_124  and  C_125
REMARK   67  A    between atoms: N_127  and  CA_128
REMARK   68  A    between atoms: CA_128  and  C_129
REMARK   69  A    between atoms: CA_128  and  CB_131
REMARK   70  A    between atoms: CB_131  and  CG_132
REMARK   71  A    between atoms: CG_132  and  CD_133
REMARK   72  A    between atoms: CD_133  and  CE_134
REMARK   73  A    between atoms: CE_134  and  NZ_135
REMARK   74  A    between atoms: N_136  and  CA_137
REMARK   75  A    between atoms: CA_137  and  C_138
REMARK   76  A    between atoms: CA_137  and  CB_140
REMARK   77  A    between atoms: CB_140  and  CG_141
REMARK   78  A    between atoms: N_147  and  CA_148
REMARK   79  A    between atoms: CA_148  and  C_149
REMARK   80  A    between atoms: N_151  and  CA_152
REMARK   81  A    between atoms: CA_152  and  C_153
REMARK   82  A    between atoms: CA_152  and  CB_155
REMARK   83  A    between atoms: CB_155  and  CG_156
REMARK   84  A    between atoms: N_159  and  CA_160
REMARK   85  A    between atoms: CA_160  and  C_161
REMARK   86  A    between atoms: CA_160  and  CB_163
REMARK   87  A    between atoms: CB_163  and  CG1_164
REMARK   88  A    between atoms: CB_163  and  CG2_165
REMARK   89  A    between atoms: N_166  and  CA_167
REMARK   90  A    between atoms: CA_167  and  C_168
REMARK   91  A    between atoms: CA_167  and  CB_170
REMARK   92  A    between atoms: CB_170  and  CG_171
REMARK   93  A    between atoms: CZ_176  and  OH_177
REMARK   94  A    between atoms: N_178  and  CA_179
REMARK   95  A    between atoms: CA_179  and  C_180
REMARK   96  A    between atoms: CA_179  and  CB_182
REMARK   97  A    between atoms: CB_182  and  CG_183
REMARK   98  A    between atoms: CG_183  and  CD1_184
REMARK   99  A    between atoms: CG_183  and  CD2_185
REMARK  100  A    between atoms: N_186  and  CA_187
REMARK  101  A    between atoms: CA_187  and  C_188
REMARK  102  A    between atoms: CA_187  and  CB_190
REMARK  103  A    between atoms: N_191  and  CA_192
REMARK  104  A    between atoms: CA_192  and  C_193
REMARK  105  A    between atoms: CA_192  and  CB_195
REMARK  106  A    between atoms: CB_195  and  CG_196
REMARK  107  A    between atoms: CG_196  and  CD_197
REMARK  108  A    between atoms: CD_197  and  NE_198
REMARK  109  A    between atoms: N_202  and  CA_203
REMARK  110  A    between atoms: CA_203  and  C_204
REMARK  111  A    between atoms: CA_203  and  CB_206
REMARK  112  A    between atoms: CB_206  and  CG_207
REMARK  113  A    between atoms: CG_207  and  CD_208
REMARK  114  A    between atoms: N_211  and  CA_212
REMARK  115  A    between atoms: CA_212  and  C_213
REMARK  116  A    between atoms: CA_212  and  CB_215
REMARK  117  A    between atoms: CB_215  and  CG_216
REMARK  118  A    between atoms: CG_216  and  CD_217
REMARK  119  A    between atoms: CD_217  and  CE_218
REMARK  120  A    between atoms: CE_218  and  NZ_219
REMARK  121  A    between atoms: N_220  and  CA_221
REMARK  122  A    between atoms: CA_221  and  C_222
REMARK  123  A    between atoms: CA_221  and  CB_224
REMARK  124  A    between atoms: N_225  and  CA_226
REMARK  125  A    between atoms: CA_226  and  C_227
REMARK  126  A    between atoms: CA_226  and  CB_229
REMARK  127  A    between atoms: CB_229  and  OG_230
REMARK  128  A    between atoms: N_231  and  CA_232
REMARK  129  A    between atoms: CA_232  and  C_233
REMARK  130  A    between atoms: CA_232  and  CB_235
REMARK  131  A    between atoms: CB_235  and  CG_236
REMARK  132  A    between atoms: CG_236  and  CD_237
REMARK  133  A    between atoms: CD_237  and  CE_238
REMARK  134  A    between atoms: CE_238  and  NZ_239
REMARK  135  A    between atoms: N_240  and  CA_241
REMARK  136  A    between atoms: CA_241  and  C_242
REMARK  137  A    between atoms: CA_241  and  CB_244
REMARK  138  A    between atoms: CB_244  and  CG_245
REMARK  139  A    between atoms: N_251  and  CA_252
REMARK  140  A    between atoms: CA_252  and  C_253
REMARK  141  A    between atoms: CA_252  and  CB_255
REMARK  142  A    between atoms: CB_255  and  CG1_256
REMARK  143  A    between atoms: CB_255  and  CG2_257
REMARK  144  A    between atoms: CG1_256  and  CD1_258
REMARK  145  A    between atoms: N_259  and  CA_260
REMARK  146  A    between atoms: CA_260  and  C_261
REMARK  147  A    between atoms: CA_260  and  CB_263
REMARK  148  A    between atoms: CB_263  and  CG_264
REMARK  149  A    between atoms: CG_264  and  CD1_265
REMARK  150  A    between atoms: CG_264  and  CD2_266
REMARK  151  A    between atoms: N_267  and  CA_268
REMARK  152  A    between atoms: CA_268  and  C_269
REMARK  153  A    between atoms: CA_268  and  CB_271
REMARK  154  A    between atoms: N_272  and  CA_273
REMARK  155  A    between atoms: CA_273  and  C_274
REMARK  156  A    between atoms: CA_273  and  CB_276
REMARK  157  A    between atoms: CB_276  and  CG_277
REMARK  158  A    between atoms: CG_277  and  CD2_278
REMARK  159  A    between atoms: CG_277  and  CD1_279
REMARK  160  A    between atoms: N_280  and  CA_281
REMARK  161  A    between atoms: CA_281  and  C_282
REMARK  162  A    between atoms: CA_281  and  CB_284
REMARK  163  A    between atoms: CB_284  and  CG_285
REMARK  164  A    between atoms: CG_285  and  CD_286
REMARK  165  A    between atoms: CD_286  and  CE_287
REMARK  166  A    between atoms: CE_287  and  NZ_288
REMARK  167  A    between atoms: N_289  and  CA_290
REMARK  168  A    between atoms: CA_290  and  C_291
REMARK  169  A    between atoms: CA_290  and  CB_293
REMARK  170  A    between atoms: CB_293  and  CG2_294
REMARK  171  A    between atoms: CB_293  and  CG1_295
REMARK  172  A    between atoms: N_296  and  CA_297
REMARK  173  A    between atoms: CA_297  and  C_298
REMARK  174  A    between atoms: CA_297  and  CB_300
REMARK  175  A    between atoms: CB_300  and  CG_301
REMARK  176  A    between atoms: CG_301  and  CD1_302
REMARK  177  A    between atoms: CG_301  and  CD2_303
REMARK  178  A    between atoms: N_304  and  CA_305
REMARK  179  A    between atoms: CA_305  and  C_306
REMARK  180  A    between atoms: CA_305  and  CB_308
REMARK  181  A    between atoms: CB_308  and  CG_309
REMARK  182  A    between atoms: N_315  and  CA_316
REMARK  183  A    between atoms: CA_316  and  C_317
REMARK  184  A    between atoms: CA_316  and  CB_319
REMARK  185  A    between atoms: CB_319  and  CG_320
REMARK  186  A    between atoms: CG_320  and  CD_321
REMARK  187  A    between atoms: CD_321  and  CE_322
REMARK  188  A    between atoms: CE_322  and  NZ_323
REMARK  189  A    between atoms: N_324  and  CA_325
REMARK  190  A    between atoms: CA_325  and  C_326
REMARK  191  A    between atoms: CA_325  and  CB_328
REMARK  192  A    between atoms: N_329  and  CA_330
REMARK  193  A    between atoms: CA_330  and  C_331
REMARK  194  A    between atoms: CA_330  and  CB_333
REMARK  195  A    between atoms: CB_333  and  CG_334
REMARK  196  A    between atoms: CG_334  and  CD_335
REMARK  197  A    between atoms: N_338  and  CA_339
REMARK  198  A    between atoms: CA_339  and  C_340
REMARK  199  A    between atoms: CA_339  and  CB_342
REMARK  200  A    between atoms: CB_342  and  CG_343
REMARK  201  A    between atoms: CG_343  and  CD1_344
REMARK  202  A    between atoms: CG_343  and  CD2_345
REMARK  203  A    between atoms: N_346  and  CA_347
REMARK  204  A    between atoms: CA_347  and  C_348
REMARK  205  A    between atoms: CA_347  and  CB_350
REMARK  206  A    between atoms: CB_350  and  CG_351
REMARK  207  A    between atoms: CG_351  and  CD_352
REMARK  208  A    between atoms: N_355  and  C_356
REMARK  209  A    between atoms: C_356  and  C_357
REMARK  210  A    between atoms: C_356  and  C_359
REMARK  211  A    between atoms: C_359  and  C_360
REMARK  212  A    between atoms: N_361  and  CA_362
REMARK  213  A    between atoms: CA_362  and  C_363
REMARK  214  A    between atoms: CA_362  and  CB_365
REMARK  215  A    between atoms: N_366  and  CA_367
REMARK  216  A    between atoms: CA_367  and  C_368
REMARK  217  A    between atoms: N_370  and  CA_371
REMARK  218  A    between atoms: CA_371  and  C_372
REMARK  219  A    between atoms: CA_371  and  CB_374
REMARK  220  A    between atoms: CB_374  and  CG2_375
REMARK  221  A    between atoms: CB_374  and  CG1_376
REMARK  222  A    between atoms: N_377  and  CA_378
REMARK  223  A    between atoms: CA_378  and  C_379
REMARK  224  A    between atoms: CA_378  and  CB_381
REMARK  225  A    between atoms: CB_381  and  CG_382
REMARK  226  A    between atoms: CG_382  and  CD_383
REMARK  227  A    between atoms: N_386  and  CA_387
REMARK  228  A    between atoms: CA_387  and  C_388
REMARK  229  A    between atoms: CA_387  and  CB_390
REMARK  230  A    between atoms: CB_390  and  CG_391
REMARK  231  A    between atoms: N_396  and  CA_397
REMARK  232  A    between atoms: CA_397  and  C_398
REMARK  233  A    between atoms: CA_397  and  CB_400
REMARK  234  A    between atoms: CB_400  and  CG_401
REMARK  235  A    between atoms: CG_401  and  CD_402
REMARK  236  A    between atoms: N_405  and  CA_406
REMARK  237  A    between atoms: CA_406  and  C_407
REMARK  238  A    between atoms: CA_406  and  CB_409
REMARK  239  A    between atoms: CB_409  and  CG_410
REMARK  240  A    between atoms: CG_410  and  CD2_411
REMARK  241  A    between atoms: CG_410  and  CD1_412
REMARK  242  A    between atoms: N_413  and  CA_414
REMARK  243  A    between atoms: CA_414  and  C_415
REMARK  244  A    between atoms: CA_414  and  CB_417
REMARK  245  A    between atoms: CB_417  and  CG_418
REMARK  246  A    between atoms: CG_418  and  CD_419
REMARK  247  A    between atoms: CD_419  and  NE_420
REMARK  248  A    between atoms: N_424  and  CA_425
REMARK  249  A    between atoms: CA_425  and  C_426
REMARK  250  A    between atoms: CA_425  and  CB_428
REMARK  251  A    between atoms: CB_428  and  CG_429
REMARK  252  A    between atoms: CG_429  and  CD_430
REMARK  253  A    between atoms: CD_430  and  NE_431
REMARK  254  A    between atoms: N_435  and  CA_436
REMARK  255  A    between atoms: CA_436  and  C_437
REMARK  256  A    between atoms: CA_436  and  CB_439
REMARK  257  A    between atoms: CB_439  and  CG_440
REMARK  258  A    between atoms: CG_440  and  CD_441
REMARK  259  A    between atoms: N_444  and  CA_445
REMARK  260  A    between atoms: CA_445  and  C_446
REMARK  261  A    between atoms: CA_445  and  CB_448
REMARK  262  A    between atoms: CB_448  and  CG1_449
REMARK  263  A    between atoms: CB_448  and  CG2_450
REMARK  264  A    between atoms: N_451  and  C_452
REMARK  265  A    between atoms: C_452  and  C_453
REMARK  266  A    between atoms: C_452  and  C_455
REMARK  267  A    between atoms: C_455  and  C_456
REMARK  268  A    between atoms: N_457  and  CA_458
REMARK  269  A    between atoms: CA_458  and  C_459
REMARK  270  A    between atoms: CA_458  and  CB_461
REMARK  271  A    between atoms: CB_461  and  CG1_462
REMARK  272  A    between atoms: CB_461  and  CG2_463
REMARK  273  A    between atoms: CG1_462  and  CD1_464
REMARK  274  A    between atoms: N_465  and  CA_466
REMARK  275  A    between atoms: CA_466  and  C_467
REMARK  276  A    between atoms: CA_466  and  CB_469
REMARK  277  A    between atoms: CB_469  and  CG_470
REMARK  278  A    between atoms: CG_470  and  CD_471
REMARK  279  A    between atoms: N_474  and  C_475
REMARK  280  A    between atoms: C_475  and  C_476
REMARK  281  A    between atoms: C_475  and  C_478
REMARK  282  A    between atoms: C_478  and  O_479
REMARK  283  A    between atoms: N_480  and  C_481
REMARK  284  A    between atoms: C_481  and  C_482
REMARK  285  A    between atoms: C_481  and  C_484
REMARK  286  A    between atoms: C_484  and  C_485
REMARK  287  A    between atoms: N_490  and  C_491
REMARK  288  A    between atoms: C_491  and  C_492
REMARK  289  A    between atoms: C_491  and  C_494
REMARK  290  A    between atoms: C_494  and  C_495
REMARK  291  A    between atoms: C_495  and  C_496
REMARK  292  A    between atoms: C_495  and  C_497
REMARK  293  A    between atoms: N_498  and  C_499
REMARK  294  A    between atoms: C_499  and  C_500
REMARK  295  A    between atoms: C_499  and  C_502
REMARK  296  A    between atoms: C_502  and  C_503
REMARK  297  A    between atoms: C_503  and  C_504
REMARK  298  A    between atoms: C_504  and  N_505
REMARK  299  A    between atoms: N_509  and  C_510
REMARK  300  A    between atoms: C_510  and  C_511
REMARK  301  A    between atoms: C_510  and  C_513
REMARK  302  A    between atoms: C_513  and  C_514
REMARK  303  A    between atoms: C_520  and  C_521
REMARK  304  A    between atoms: N_526  and  C_527
REMARK  305  A    between atoms: C_527  and  C_528
REMARK  306  A    between atoms: C_527  and  C_530
REMARK  307  A    between atoms: C_530  and  C_531
REMARK  308  A    between atoms: N_534  and  C_535
REMARK  309  A    between atoms: C_535  and  C_536
REMARK  310  A    between atoms: C_535  and  C_538
REMARK  311  A    between atoms: C_538  and  C_539
REMARK  312  A    between atoms: C_538  and  C_540
REMARK  313  A    between atoms: C_539  and  C_541
REMARK  314  A    between atoms: N_542  and  C_543
REMARK  315  A    between atoms: C_543  and  C_544
REMARK  316  A    between atoms: C_543  and  C_546
REMARK  317  A    between atoms: C_546  and  C_547
REMARK  318  A    between atoms: C_547  and  C_548
REMARK  319  A    between atoms: C_547  and  C_549
REMARK  320  A    between atoms: N_550  and  C_551
REMARK  321  A    between atoms: C_551  and  C_552
REMARK  322  A    between atoms: C_551  and  C_554
REMARK  323  A    between atoms: C_554  and  C_555
REMARK  324  A    between atoms: C_555  and  C_556
REMARK  325  A    between atoms: C_556  and  N_557
REMARK  326  A    between atoms: N_561  and  C_562
REMARK  327  A    between atoms: C_562  and  C_567
REMARK  328  A    between atoms: C_563  and  C_564
REMARK  329  A    between atoms: C_568  and  C_569
REMARK  330  A    between atoms: C_568  and  C_571
REMARK  331  A    between atoms: C_569  and  C_572
REMARK  332  A    between atoms: C_569  and  C_573
REMARK  333  A    between atoms: C_570  and  C_573
REMARK  334  A    between atoms: N_574  and  CA_575
REMARK  335  A    between atoms: CA_575  and  C_576
REMARK  336  A    between atoms: CA_575  and  CB_578
REMARK  337  A    between atoms: CB_578  and  CG_579
REMARK  338  A    between atoms: CZ_584  and  OH_585
REMARK  339  A    between atoms: N_586  and  CA_587
REMARK  340  A    between atoms: CA_587  and  C_588
REMARK  341  A    between atoms: N_590  and  CA_591
REMARK  342  A    between atoms: CA_591  and  C_592
REMARK  343  A    between atoms: CA_591  and  CB_594
REMARK  344  A    between atoms: CB_594  and  CG_595
REMARK  345  A    between atoms: CZ_600  and  OH_601
REMARK  346  A    between atoms: N_602  and  CA_603
REMARK  347  A    between atoms: CA_603  and  C_604
REMARK  348  A    between atoms: CA_603  and  CB_606
REMARK  349  A    between atoms: CB_606  and  CG_607
REMARK  350  A    between atoms: N_613  and  CA_614
REMARK  351  A    between atoms: CA_614  and  C_615
REMARK  352  A    between atoms: CA_614  and  CB_617
REMARK  353  A    between atoms: CB_617  and  CG_618
REMARK  354  A    between atoms: N_623  and  CA_624
REMARK  355  A    between atoms: CA_624  and  C_625
REMARK  356  A    between atoms: CA_624  and  CB_627
REMARK  357  A    between atoms: CB_627  and  CG_628
REMARK  358  A    between atoms: N_631  and  CA_632
REMARK  359  A    between atoms: CA_632  and  C_633
REMARK  360  A    between atoms: CA_632  and  CB_635
REMARK  361  A    between atoms: N_636  and  CA_637
REMARK  362  A    between atoms: CA_637  and  C_638
REMARK  363  A    between atoms: CA_637  and  CB_640
REMARK  364  A    between atoms: CB_640  and  OG1_641
REMARK  365  A    between atoms: CB_640  and  CG2_642
REMARK  366  A    between atoms: N_643  and  CA_644
REMARK  367  A    between atoms: CA_644  and  C_645
REMARK  368  A    between atoms: CA_644  and  CB_647
REMARK  369  A    between atoms: CB_647  and  CG_648
REMARK  370  A    between atoms: CG_648  and  CD_649
REMARK  371  A    between atoms: CD_649  and  NE_650
REMARK  372  A    between atoms: N_654  and  CA_655
REMARK  373  A    between atoms: CA_655  and  C_656
REMARK  374  A    between atoms: CA_655  and  CB_658
REMARK  375  A    between atoms: CB_658  and  CG1_659
REMARK  376  A    between atoms: CB_658  and  CG2_660
REMARK  377  A    between atoms: N_661  and  CA_662
REMARK  378  A    between atoms: CA_662  and  C_663
REMARK  379  A    between atoms: CA_662  and  CB_665
REMARK  380  A    between atoms: CB_665  and  CG_666
REMARK  381  A    between atoms: CZ_671  and  OH_672
REMARK  382  A    between atoms: N_673  and  CA_674
REMARK  383  A    between atoms: CA_674  and  C_675
REMARK  384  A    between atoms: CA_674  and  CB_677
REMARK  385  A    between atoms: CB_677  and  CG_678
REMARK  386  A    between atoms: CG_678  and  CD2_679
REMARK  387  A    between atoms: CG_678  and  CD1_680
REMARK  388  A    between atoms: N_681  and  CA_682
REMARK  389  A    between atoms: CA_682  and  C_683
REMARK  390  A    between atoms: CA_682  and  CB_685
REMARK  391  A    between atoms: CB_685  and  CG1_686
REMARK  392  A    between atoms: CB_685  and  CG2_687
REMARK  393  A    between atoms: CG1_686  and  CD1_688
REMARK  394  A    between atoms: N_689  and  CA_690
REMARK  395  A    between atoms: CA_690  and  C_691
REMARK  396  A    between atoms: CA_690  and  CB_693
REMARK  397  A    between atoms: CB_693  and  CG_694
REMARK  398  A    between atoms: CG_694  and  CD2_695
REMARK  399  A    between atoms: CG_694  and  CD1_696
REMARK  400  A    between atoms: N_697  and  CA_698
REMARK  401  A    between atoms: CA_698  and  C_699
REMARK  402  A    between atoms: CA_698  and  CB_701
REMARK  403  A    between atoms: CB_701  and  CG_702
REMARK  404  A    between atoms: CG_702  and  CD_703
REMARK  405  A    between atoms: N_706  and  CA_707
REMARK  406  A    between atoms: CA_707  and  C_708
REMARK  407  A    between atoms: CA_707  and  CB_710
REMARK  408  A    between atoms: CB_710  and  CG_711
REMARK  409  A    between atoms: CZ_716  and  OH_717
REMARK  410  A    between atoms: N_718  and  CA_719
REMARK  411  A    between atoms: CA_719  and  C_720
REMARK  412  A    between atoms: CA_719  and  CB_722
REMARK  413  A    between atoms: CA_724  and  C_725
REMARK  414  A    between atoms: N_730  and  CA_731
REMARK  415  A    between atoms: CA_731  and  C_732
REMARK  416  A    between atoms: CA_731  and  CB_734
REMARK  417  A    between atoms: CB_734  and  CG_735
REMARK  418  A    between atoms: CG_735  and  CD1_736
REMARK  419  A    between atoms: CG_735  and  CD2_737
REMARK  420  A    between atoms: N_738  and  CA_739
REMARK  421  A    between atoms: CA_739  and  C_740
REMARK  422  A    between atoms: N_742  and  CA_743
REMARK  423  A    between atoms: CA_743  and  C_744
REMARK  424  A    between atoms: CA_743  and  CB_746
REMARK  425  A    between atoms: CB_746  and  OG1_747
REMARK  426  A    between atoms: CB_746  and  CG2_748
REMARK  427  A    between atoms: N_749  and  CA_750
REMARK  428  A    between atoms: CA_750  and  C_751
REMARK  429  A    between atoms: CA_750  and  CB_753
REMARK  430  A    between atoms: CB_753  and  CG2_754
REMARK  431  A    between atoms: CB_753  and  CG1_755
REMARK  432  A    between atoms: N_756  and  CA_757
REMARK  433  A    between atoms: CA_757  and  C_758
REMARK  434  A    between atoms: CA_757  and  CB_760
REMARK  435  A    between atoms: CB_760  and  CG_761
REMARK  436  A    between atoms: CZ_766  and  OH_767
REMARK  437  A    between atoms: N_768  and  C_769
REMARK  438  A    between atoms: C_769  and  C_770
REMARK  439  A    between atoms: C_769  and  C_772
REMARK  440  A    between atoms: C_772  and  C_773
REMARK  441  A    between atoms: N_774  and  CA_775
REMARK  442  A    between atoms: CA_775  and  C_776
REMARK  443  A    between atoms: CA_775  and  CB_778
REMARK  444  A    between atoms: CB_778  and  CG_779
REMARK  445  A    between atoms: CG_779  and  CD_780
REMARK  446  A    between atoms: N_783  and  CA_784
REMARK  447  A    between atoms: CA_784  and  C_785
REMARK  448  A    between atoms: CA_784  and  CB_787
REMARK  449  A    between atoms: CB_787  and  CG_788
REMARK  450  A    between atoms: CG_788  and  CD2_789
REMARK  451  A    between atoms: CG_788  and  CD1_790
REMARK  452  A    between atoms: N_791  and  CA_792
REMARK  453  A    between atoms: CA_792  and  C_793
REMARK  454  A    between atoms: CA_792  and  CB_795
REMARK  455  A    between atoms: CB_795  and  CG_796
REMARK  456  A    between atoms: CG_796  and  CD_797
REMARK  457  A    between atoms: N_800  and  CA_801
REMARK  458  A    between atoms: CA_801  and  C_802
REMARK  459  A    between atoms: CA_801  and  CB_804
REMARK  460  A    between atoms: CB_804  and  CG_805
REMARK  461  A    between atoms: CG_805  and  CD_806
REMARK  462  A    between atoms: CD_806  and  CE_807
REMARK  463  A    between atoms: CE_807  and  NZ_808
REMARK  464  A    between atoms: N_809  and  CA_810
REMARK  465  A    between atoms: CA_810  and  C_811
REMARK  466  A    between atoms: CA_810  and  CB_813
REMARK  467  A    between atoms: CB_813  and  CG_814
REMARK  468  A    between atoms: CG_814  and  CD1_815
REMARK  469  A    between atoms: CG_814  and  CD2_816
REMARK  470  A    between atoms: N_817  and  CA_818
REMARK  471  A    between atoms: CA_818  and  C_819
REMARK  472  A    between atoms: CA_818  and  CB_821
REMARK  473  A    between atoms: CB_821  and  OG_822
REMARK  474  A    between atoms: N_823  and  CA_824
REMARK  475  A    between atoms: CA_824  and  C_825
REMARK  476  A    between atoms: CA_824  and  CB_827
REMARK  477  A    between atoms: CB_827  and  CG_828
REMARK  478  A    between atoms: CG_828  and  CD_829
REMARK  479  A    between atoms: CD_829  and  CE_830
REMARK  480  A    between atoms: CE_830  and  NZ_831
REMARK  481  A    between atoms: N_832  and  CA_833
REMARK  482  A    between atoms: CA_833  and  C_834
REMARK  483  A    between atoms: CA_833  and  CB_836
REMARK  484  A    between atoms: CB_836  and  CG_837
REMARK  485  A    between atoms: N_843  and  CA_844
REMARK  486  A    between atoms: CA_844  and  C_845
REMARK  487  A    between atoms: CA_844  and  CB_847
REMARK  488  A    between atoms: CB_847  and  CG_848
REMARK  489  A    between atoms: N_851  and  CA_852
REMARK  490  A    between atoms: CA_852  and  C_853
REMARK  491  A    between atoms: CA_852  and  CB_855
REMARK  492  A    between atoms: CB_855  and  CG_856
REMARK  493  A    between atoms: CG_856  and  CD_857
REMARK  494  A    between atoms: N_860  and  CA_861
REMARK  495  A    between atoms: CA_861  and  C_862
REMARK  496  A    between atoms: CA_861  and  CB_864
REMARK  497  A    between atoms: CB_864  and  CG_865
REMARK  498  A    between atoms: CG_865  and  CD_866
REMARK  499  A    between atoms: N_869  and  CA_870
REMARK  500  A    between atoms: CA_870  and  C_871
REMARK  501  A    between atoms: CA_870  and  CB_873
REMARK  502  A    between atoms: CB_873  and  CG_874
REMARK  503  A    between atoms: CG_874  and  CD_875
REMARK  504  A    between atoms: CD_875  and  NE_876
REMARK  505  A    between atoms: N_880  and  CA_881
REMARK  506  A    between atoms: CA_881  and  C_882
REMARK  507  A    between atoms: CA_881  and  CB_884
REMARK  508  A    between atoms: CB_884  and  OG1_885
REMARK  509  A    between atoms: CB_884  and  CG2_886
REMARK  510  A    between atoms: N_887  and  CA_888
REMARK  511  A    between atoms: CA_888  and  C_889
REMARK  512  A    between atoms: CA_888  and  CB_891
REMARK  513  A    between atoms: N_892  and  CA_893
REMARK  514  A    between atoms: CA_893  and  C_894
REMARK  515  A    between atoms: CA_893  and  CB_896
REMARK  516  A    between atoms: CB_896  and  OG1_897
REMARK  517  A    between atoms: CB_896  and  CG2_898
REMARK  518  A    between atoms: N_899  and  CA_900
REMARK  519  A    between atoms: CA_900  and  C_901
REMARK  520  A    between atoms: CA_900  and  CB_903
REMARK  521  A    between atoms: CB_903  and  CG_904
REMARK  522  A    between atoms: CZ_909  and  OH_910
REMARK  523  A    between atoms: N_911  and  CA_912
REMARK  524  A    between atoms: CA_912  and  C_913
REMARK  525  A    between atoms: CA_912  and  CB_915
REMARK  526  A    between atoms: CB_915  and  CG1_916
REMARK  527  A    between atoms: CB_915  and  CG2_917
REMARK  528  A    between atoms: CG1_916  and  CD1_918
REMARK  529  A    between atoms: N_919  and  CA_920
REMARK  530  A    between atoms: CA_920  and  C_921
REMARK  531  A    between atoms: CA_920  and  CB_923
REMARK  532  A    between atoms: CB_923  and  OG1_924
REMARK  533  A    between atoms: CB_923  and  CG2_925
REMARK  534  A    between atoms: N_926  and  CA_927
REMARK  535  A    between atoms: CA_927  and  C_928
REMARK  536  A    between atoms: CA_927  and  CB_930
REMARK  537  A    between atoms: CB_930  and  CG_931
REMARK  538  A    between atoms: CG_931  and  CD_932
REMARK  539  A    between atoms: N_935  and  CA_936
REMARK  540  A    between atoms: CA_936  and  C_937
REMARK  541  A    between atoms: CA_936  and  CB_939
REMARK  542  A    between atoms: CB_939  and  CG_940
REMARK  543  A    between atoms: CG_940  and  CD2_941
REMARK  544  A    between atoms: CG_940  and  CD1_942
REMARK  545  A    between atoms: N_943  and  CA_944
REMARK  546  A    between atoms: CA_944  and  C_945
REMARK  547  A    between atoms: CA_944  and  CB_947
REMARK  548  A    between atoms: N_948  and  CA_949
REMARK  549  A    between atoms: CA_949  and  C_950
REMARK  550  A    between atoms: CA_949  and  CB_952
REMARK  551  A    between atoms: CB_952  and  CG_953
REMARK  552  A    between atoms: N_956  and  CA_957
REMARK  553  A    between atoms: CA_957  and  C_958
REMARK  554  A    between atoms: CA_957  and  CB_960
REMARK  555  A    between atoms: N_961  and  CA_962
REMARK  556  A    between atoms: CA_962  and  C_963
REMARK  557  A    between atoms: CA_962  and  CB_965
REMARK  558  A    between atoms: CB_965  and  CG_966
REMARK  559  A    between atoms: CG_966  and  CD2_967
REMARK  560  A    between atoms: CG_966  and  CD1_968
REMARK  561  A    between atoms: N_969  and  CA_970
REMARK  562  A    between atoms: CA_970  and  C_971
REMARK  563  A    between atoms: CA_970  and  CB_973
REMARK  564  A    between atoms: CB_973  and  OG_974
REMARK  565  A    between atoms: N_975  and  CA_976
REMARK  566  A    between atoms: CA_976  and  C_977
REMARK  567  A    between atoms: CA_976  and  CB_979
REMARK  568  A    between atoms: CB_979  and  CG_980
REMARK  569  A    between atoms: CZ_985  and  OH_986
REMARK  570  A    between atoms: N_987  and  CA_988
REMARK  571  A    between atoms: CA_988  and  C_989
REMARK  572  A    between atoms: CA_988  and  CB_991
REMARK  573  A    between atoms: CB_991  and  SG_992
REMARK  574  A    between atoms: N_993  and  CA_994
REMARK  575  A    between atoms: CA_994  and  C_995
REMARK  576  A    between atoms: CA_994  and  CB_997
REMARK  577  A    between atoms: CB_997  and  CG_998
REMARK  578  A    between atoms: N_1003  and  C_1004
REMARK  579  A    between atoms: C_1004  and  C_1005
REMARK  580  A    between atoms: C_1004  and  C_1007
REMARK  581  A    between atoms: C_1007  and  O_1008
REMARK  582  A    between atoms: N_1009  and  C_1010
REMARK  583  A    between atoms: C_1010  and  C_1011
REMARK  584  A    between atoms: C_1010  and  C_1013
REMARK  585  A    between atoms: C_1013  and  C_1014
REMARK  586  A    between atoms: C_1014  and  C_1015
REMARK  587  A    between atoms: C_1015  and  C_1016
REMARK  588  A    between atoms: C_1016  and  N_1017
REMARK  589  A    between atoms: N_1018  and  C_1019
REMARK  590  A    between atoms: C_1020  and  C_1021
REMARK  591  A    between atoms: C_1020  and  C_1024
REMARK  592  A    between atoms: C_1023  and  C_1026
REMARK  593  A    between atoms: C_1025  and  C_1026
REMARK  594  A    between atoms: C_1027  and  N_1029
REMARK  595  A    between atoms: C_1028  and  N_1030
REMARK  596  A    between atoms: N_1037  and  C_1038
REMARK  597  A    between atoms: C_1038  and  C_1039
REMARK  598  A    between atoms: C_1038  and  C_1041
REMARK  599  A    between atoms: C_1041  and  C_1042
REMARK  600  A    between atoms: C_1041  and  C_1043
REMARK  601  A    between atoms: N_1044  and  C_1045
REMARK  602  A    between atoms: C_1045  and  C_1046
REMARK  603  A    between atoms: C_1045  and  C_1048
REMARK  604  A    between atoms: C_1048  and  C_1049
REMARK  605  A    between atoms: C_1048  and  C_1050
REMARK  606  A    between atoms: C_1049  and  C_1051
REMARK  607  A    between atoms: N_1052  and  C_1053
REMARK  608  A    between atoms: C_1053  and  C_1054
REMARK  609  A    between atoms: C_1053  and  C_1056
REMARK  610  A    between atoms: C_1056  and  C_1057
REMARK  611  A    between atoms: N_1062  and  C_1063
REMARK  612  A    between atoms: C_1063  and  C_1064
REMARK  613  A    between atoms: C_1063  and  C_1066
REMARK  614  A    between atoms: C_1066  and  C_1067
REMARK  615  A    between atoms: C_1067  and  C_1068
REMARK  616  A    between atoms: C_1068  and  N_1069
REMARK  617  A    between atoms: N_1073  and  C_1074
REMARK  618  A    between atoms: C_1074  and  C_1077
REMARK  619  A    between atoms: C_1077  and  C_1078
REMARK  620  A    between atoms: N_1081  and  C_1084
REMARK  621  A    between atoms: C_1083  and  C_1085
REMARK  622  A    between atoms: C_1085  and  C_1086
REMARK  623  A    between atoms: C_1085  and  O_1087
REMARK  624  A    between atoms: C_1085  and  N_1097
REMARK  625  A    between atoms: C_1089  and  C_1094
REMARK  626  A    between atoms: C_1090  and  C_1091
REMARK  627  A    between atoms: C_1093  and  C_1094
REMARK  628  A    between atoms: C_1098  and  C_1099
REMARK  629  A    between atoms: C_1098  and  C_1101
REMARK  630  A    between atoms: C_1101  and  C_1102
REMARK  631  A    between atoms: C_1102  and  C_1103
REMARK  632  A    between atoms: C_1103  and  C_1104
REMARK  633  A    between atoms: C_1104  and  N_1105
REMARK  634  A    between atoms: C_1107  and  C_1108
REMARK  635  A    between atoms: N_1113  and  CA_1114
REMARK  636  A    between atoms: CA_1114  and  C_1115
REMARK  637  A    between atoms: CA_1114  and  CB_1117
REMARK  638  A    between atoms: CB_1117  and  CG_1118
REMARK  639  A    between atoms: CG_1118  and  CD_1119
REMARK  640  A    between atoms: N_1122  and  CA_1123
REMARK  641  A    between atoms: CA_1123  and  C_1124
REMARK  642  A    between atoms: CA_1123  and  CB_1126
REMARK  643  A    between atoms: CB_1126  and  CG_1127
REMARK  644  A    between atoms: N_1130  and  CA_1131
REMARK  645  A    between atoms: CA_1131  and  C_1132
REMARK  646  A    between atoms: CA_1131  and  CB_1134
REMARK  647  A    between atoms: CB_1134  and  CG_1135
REMARK  648  A    between atoms: CG_1135  and  CD2_1136
REMARK  649  A    between atoms: CG_1135  and  CD1_1137
REMARK  650  A    between atoms: N_1138  and  CA_1139
REMARK  651  A    between atoms: CA_1139  and  C_1140
REMARK  652  A    between atoms: CA_1139  and  CB_1142
REMARK  653  A    between atoms: CB_1142  and  CG_1143
REMARK  654  A    between atoms: CG_1143  and  CD1_1144
REMARK  655  A    between atoms: CG_1143  and  CD2_1145
REMARK  656  A    between atoms: N_1146  and  CA_1147
REMARK  657  A    between atoms: CA_1147  and  C_1148
REMARK  658  A    between atoms: CA_1147  and  CB_1150
REMARK  659  A    between atoms: CB_1150  and  CG_1151
REMARK  660  A    between atoms: CG_1151  and  CD2_1152
REMARK  661  A    between atoms: CG_1151  and  CD1_1153
REMARK  662  A    between atoms: N_1154  and  CA_1155
REMARK  663  A    between atoms: CA_1155  and  C_1156
REMARK  664  A    between atoms: N_1158  and  CA_1159
REMARK  665  A    between atoms: CA_1159  and  C_1160
REMARK  666  A    between atoms: CA_1159  and  CB_1162
REMARK  667  A    between atoms: CB_1162  and  OG_1163
REMARK  668  A    between atoms: N_1164  and  CA_1165
REMARK  669  A    between atoms: CA_1165  and  C_1166
REMARK  670  A    between atoms: CA_1165  and  CB_1168
REMARK  671  A    between atoms: N_1169  and  CA_1170
REMARK  672  A    between atoms: CA_1170  and  C_1171
REMARK  673  A    between atoms: N_1173  and  CA_1174
REMARK  674  A    between atoms: CA_1174  and  C_1175
REMARK  675  A    between atoms: CA_1174  and  CB_1177
REMARK  676  A    between atoms: CB_1177  and  CG_1178
REMARK  677  A    between atoms: CG_1178  and  CD_1179
REMARK  678  A    between atoms: N_1182  and  CA_1183
REMARK  679  A    between atoms: CA_1183  and  C_1184
REMARK  680  A    between atoms: CA_1183  and  CB_1186
REMARK  681  A    between atoms: CB_1186  and  CG_1187
REMARK  682  A    between atoms: CG_1187  and  CD2_1188
REMARK  683  A    between atoms: CG_1187  and  CD1_1189
REMARK  684  A    between atoms: N_1190  and  CA_1191
REMARK  685  A    between atoms: CA_1191  and  C_1192
REMARK  686  A    between atoms: CA_1191  and  CB_1194
REMARK  687  A    between atoms: CB_1194  and  CG_1195
REMARK  688  A    between atoms: CG_1195  and  CD_1196
REMARK  689  A    between atoms: CD_1196  and  CE_1197
REMARK  690  A    between atoms: CE_1197  and  NZ_1198
REMARK  691  A    between atoms: N_1199  and  CA_1200
REMARK  692  A    between atoms: CA_1200  and  C_1201
REMARK  693  A    between atoms: CA_1200  and  CB_1203
REMARK  694  A    between atoms: CB_1203  and  CG1_1204
REMARK  695  A    between atoms: CB_1203  and  CG2_1205
REMARK  696  A    between atoms: CG1_1204  and  CD1_1206
REMARK  697  A    between atoms: N_1207  and  CA_1208
REMARK  698  A    between atoms: CA_1208  and  C_1209
REMARK  699  A    between atoms: CA_1208  and  CB_1211
REMARK  700  A    between atoms: N_1212  and  CA_1213
REMARK  701  A    between atoms: CA_1213  and  C_1214
REMARK  702  A    between atoms: CA_1213  and  CB_1216
REMARK  703  A    between atoms: CB_1216  and  CG_1217
REMARK  704  A    between atoms: N_1220  and  CA_1221
REMARK  705  A    between atoms: CA_1221  and  C_1222
REMARK  706  A    between atoms: CA_1221  and  CB_1224
REMARK  707  A    between atoms: CB_1224  and  CG_1225
REMARK  708  A    between atoms: N_1231  and  CA_1232
REMARK  709  A    between atoms: CA_1232  and  C_1233
REMARK  710  A    between atoms: N_1235  and  CA_1236
REMARK  711  A    between atoms: CA_1236  and  C_1237
REMARK  712  A    between atoms: CA_1236  and  CB_1239
REMARK  713  A    between atoms: CB_1239  and  CG_1240
REMARK  714  A    between atoms: N_1249  and  CA_1250
REMARK  715  A    between atoms: CA_1250  and  C_1251
REMARK  716  A    between atoms: CA_1250  and  CB_1253
REMARK  717  A    between atoms: CB_1253  and  OG_1254
REMARK  718  A    between atoms: N_1255  and  CA_1256
REMARK  719  A    between atoms: CA_1256  and  C_1257
REMARK  720  A    between atoms: CA_1256  and  CB_1259
REMARK  721  A    between atoms: CB_1259  and  CG2_1260
REMARK  722  A    between atoms: CB_1259  and  CG1_1261
REMARK  723  A    between atoms: N_1262  and  CA_1263
REMARK  724  A    between atoms: CA_1263  and  C_1264
REMARK  725  A    between atoms: CA_1263  and  CB_1266
REMARK  726  A    between atoms: CB_1266  and  CG_1267
REMARK  727  A    between atoms: N_1272  and  CA_1273
REMARK  728  A    between atoms: CA_1273  and  C_1274
REMARK  729  A    between atoms: CA_1273  and  CB_1276
REMARK  730  A    between atoms: CA_1278  and  C_1279
REMARK  731  A    between atoms: N_1284  and  CA_1285
REMARK  732  A    between atoms: CA_1285  and  C_1286
REMARK  733  A    between atoms: CA_1285  and  CB_1288
REMARK  734  A    between atoms: CB_1288  and  OG_1289
REMARK  735  A    between atoms: N_1290  and  CA_1291
REMARK  736  A    between atoms: CA_1291  and  C_1292
REMARK  737  A    between atoms: CA_1291  and  CB_1294
REMARK  738  A    between atoms: CB_1294  and  OG_1295
REMARK  739  A    between atoms: N_1296  and  C_1297
REMARK  740  A    between atoms: C_1297  and  C_1298
REMARK  741  A    between atoms: C_1297  and  C_1300
REMARK  742  A    between atoms: C_1300  and  C_1301
REMARK  743  A    between atoms: C_1301  and  C_1302
REMARK  744  A    between atoms: N_1303  and  CA_1304
REMARK  745  A    between atoms: CA_1304  and  C_1305
REMARK  746  A    between atoms: CA_1304  and  CB_1307
REMARK  747  A    between atoms: CB_1307  and  CG_1308
REMARK  748  A    between atoms: CG_1308  and  CD_1309
REMARK  749  A    between atoms: CD_1309  and  NE_1310
REMARK  750  A    between atoms: N_1314  and  CA_1315
REMARK  751  A    between atoms: CA_1315  and  C_1316
REMARK  752  A    between atoms: CA_1315  and  CB_1318
REMARK  753  A    between atoms: CB_1318  and  OG1_1319
REMARK  754  A    between atoms: CB_1318  and  CG2_1320
REMARK  755  A    between atoms: N_1321  and  C_1322
REMARK  756  A    between atoms: C_1322  and  C_1323
REMARK  757  A    between atoms: C_1322  and  C_1325
REMARK  758  A    between atoms: C_1325  and  C_1326
REMARK  759  A    between atoms: C_1326  and  C_1327
REMARK  760  A    between atoms: C_1326  and  C_1328
REMARK  761  A    between atoms: N_1329  and  C_1330
REMARK  762  A    between atoms: C_1330  and  C_1331
REMARK  763  A    between atoms: C_1330  and  C_1333
REMARK  764  A    between atoms: N_1334  and  C_1335
REMARK  765  A    between atoms: C_1335  and  C_1336
REMARK  766  A    between atoms: N_1338  and  C_1339
REMARK  767  A    between atoms: C_1339  and  C_1340
REMARK  768  A    between atoms: C_1339  and  C_1342
REMARK  769  A    between atoms: C_1342  and  O_1343
REMARK  770  A    between atoms: C_1342  and  C_1344
REMARK  771  A    between atoms: N_1345  and  C_1346
REMARK  772  A    between atoms: C_1346  and  C_1347
REMARK  773  A    between atoms: C_1346  and  C_1349
REMARK  774  A    between atoms: C_1349  and  C_1350
REMARK  775  A    between atoms: C_1350  and  C_1351
REMARK  776  A    between atoms: C_1350  and  C_1352
REMARK  777  A    between atoms: N_1353  and  C_1354
REMARK  778  A    between atoms: C_1354  and  C_1355
REMARK  779  A    between atoms: C_1354  and  C_1357
REMARK  780  A    between atoms: C_1357  and  C_1358
REMARK  781  A    between atoms: N_1361  and  C_1362
REMARK  782  A    between atoms: C_1362  and  C_1363
REMARK  783  A    between atoms: C_1362  and  C_1365
REMARK  784  A    between atoms: C_1365  and  C_1366
REMARK  785  A    between atoms: C_1371  and  O_1372
REMARK  786  A    between atoms: N_1373  and  C_1374
REMARK  787  A    between atoms: C_1374  and  C_1375
REMARK  788  A    between atoms: C_1374  and  C_1377
REMARK  789  A    between atoms: C_1377  and  C_1378
REMARK  790  A    between atoms: C_1378  and  C_1379
REMARK  791  A    between atoms: C_1378  and  C_1380
REMARK  792  A    between atoms: C_1382  and  C_1383
REMARK  793  A    between atoms: C_1389  and  C_1390
REMARK  794  A    between atoms: N_1395  and  C_1396
REMARK  795  A    between atoms: C_1396  and  C_1399
REMARK  796  A    between atoms: C_1399  and  C_1400
REMARK  797  A    between atoms: C_1400  and  C_1401
REMARK  798  A    between atoms: N_1405  and  C_1406
REMARK  799  A    between atoms: C_1407  and  C_1412
REMARK  800  A    between atoms: C_1408  and  O_1410
REMARK  801  A    between atoms: C_1409  and  O_1411
REMARK  802  A    between atoms: O_1410  and  O_1411
REMARK  803  A    between atoms: C_1412  and  C_1414
REMARK  804  A    between atoms: C_1413  and  C_1415
REMARK  805  A    between atoms: S_1416  and  C_1418
REMARK  806  A    between atoms: S_1417  and  C_1419
REMARK  807  A    between atoms: C_1418  and  C_1419
REMARK  808  A    between atoms: N_1420  and  CA_1421
REMARK  809  A    between atoms: CA_1421  and  C_1422
REMARK  810  A    between atoms: CA_1421  and  CB_1424
REMARK  811  A    between atoms: CB_1424  and  CG1_1425
REMARK  812  A    between atoms: CB_1424  and  CG2_1426
REMARK  813  A    between atoms: CG1_1425  and  CD1_1427
REMARK  814  A    between atoms: N_1428  and  CA_1429
REMARK  815  A    between atoms: CA_1429  and  C_1430
REMARK  816  A    between atoms: CA_1429  and  CB_1432
REMARK  817  A    between atoms: CB_1432  and  CG_1433
REMARK  818  A    between atoms: CG_1433  and  CD_1434
REMARK  819  A    between atoms: N_1437  and  CA_1438
REMARK  820  A    between atoms: CA_1438  and  C_1439
REMARK  821  A    between atoms: N_1441  and  CA_1442
REMARK  822  A    between atoms: CA_1442  and  C_1443
REMARK  823  A    between atoms: CA_1442  and  CB_1445
REMARK  824  A    between atoms: CB_1445  and  CG_1446
REMARK  825  A    between atoms: CG_1446  and  CD_1447
REMARK  826  A    between atoms: CD_1447  and  NE_1448
REMARK  827  A    between atoms: N_1452  and  C_1453
REMARK  828  A    between atoms: C_1453  and  C_1454
REMARK  829  A    between atoms: C_1453  and  C_1456
REMARK  830  A    between atoms: C_1456  and  C_1457
REMARK  831  A    between atoms: C_1457  and  S_1458
REMARK  832  A    between atoms: N_1459  and  CA_1460
REMARK  833  A    between atoms: CA_1460  and  C_1461
REMARK  834  A    between atoms: CA_1460  and  CB_1463
REMARK  835  A    between atoms: CB_1463  and  CG_1464
REMARK  836  A    between atoms: N_1469  and  CA_1470
REMARK  837  A    between atoms: CA_1470  and  C_1471
REMARK  838  A    between atoms: CA_1470  and  CB_1473
REMARK  839  A    between atoms: CB_1473  and  CG_1474
REMARK  840  A    between atoms: N_1477  and  CA_1478
REMARK  841  A    between atoms: CA_1478  and  C_1479
REMARK  842  A    between atoms: CA_1478  and  CB_1481
REMARK  843  A    between atoms: CB_1481  and  CG_1482
REMARK  844  A    between atoms: CG_1482  and  CD_1483
REMARK  845  A    between atoms: N_1486  and  CA_1487
REMARK  846  A    between atoms: CA_1487  and  C_1488
REMARK  847  A    between atoms: CA_1487  and  CB_1490
REMARK  848  A    between atoms: CB_1490  and  CG_1491
REMARK  849  A    between atoms: CG_1491  and  CD_1492
REMARK  850  A    between atoms: CD_1492  and  CE_1493
REMARK  851  A    between atoms: CE_1493  and  NZ_1494
REMARK  852  A    between atoms: N_1495  and  CA_1496
REMARK  853  A    between atoms: CA_1496  and  C_1497
REMARK  854  A    between atoms: CA_1496  and  CB_1499
REMARK  855  A    between atoms: CB_1499  and  CG2_1500
REMARK  856  A    between atoms: CB_1499  and  CG1_1501
REMARK  857  A    between atoms: N_1502  and  CA_1503
REMARK  858  A    between atoms: CA_1503  and  C_1504
REMARK  859  A    between atoms: CA_1503  and  CB_1506
REMARK  860  A    between atoms: CB_1506  and  CG_1507
REMARK  861  A    between atoms: N_1510  and  CA_1511
REMARK  862  A    between atoms: CA_1511  and  C_1512
REMARK  863  A    between atoms: CA_1511  and  CB_1514
REMARK  864  A    between atoms: CB_1514  and  CG_1515
REMARK  865  A    between atoms: CG_1515  and  CD2_1516
REMARK  866  A    between atoms: CG_1515  and  CD1_1517
REMARK  867  A    between atoms: N_1518  and  CA_1519
REMARK  868  A    between atoms: CA_1519  and  C_1520
REMARK  869  A    between atoms: CA_1519  and  CB_1522
REMARK  870  A    between atoms: CB_1522  and  CG_1523
REMARK  871  A    between atoms: N_1532  and  CA_1533
REMARK  872  A    between atoms: CA_1533  and  C_1534
REMARK  873  A    between atoms: CA_1533  and  CB_1536
REMARK  874  A    between atoms: CB_1536  and  OG_1537
REMARK  875  A    between atoms: N_1538  and  CA_1539
REMARK  876  A    between atoms: CA_1539  and  C_1540
REMARK  877  A    between atoms: CA_1539  and  CB_1542
REMARK  878  A    between atoms: CB_1542  and  CG_1543
REMARK  879  A    between atoms: CG_1543  and  CD2_1544
REMARK  880  A    between atoms: CG_1543  and  CD1_1545
REMARK  881  A    between atoms: N_1546  and  CA_1547
REMARK  882  A    between atoms: CA_1547  and  C_1548
REMARK  883  A    between atoms: N_1550  and  CA_1551
REMARK  884  A    between atoms: CA_1551  and  C_1552
REMARK  885  A    between atoms: CA_1551  and  CB_1554
REMARK  886  A    between atoms: CB_1554  and  CG2_1555
REMARK  887  A    between atoms: CB_1554  and  CG1_1556
REMARK  888  A    between atoms: N_1557  and  CA_1558
REMARK  889  A    between atoms: CA_1558  and  C_1559
REMARK  890  A    between atoms: CA_1558  and  CB_1561
REMARK  891  A    between atoms: CB_1561  and  CG_1562
REMARK  892  A    between atoms: CG_1562  and  CD1_1563
REMARK  893  A    between atoms: CG_1562  and  CD2_1564
REMARK  894  A    between atoms: N_1565  and  CA_1566
REMARK  895  A    between atoms: CA_1566  and  C_1567
REMARK  896  A    between atoms: CA_1566  and  CB_1569
REMARK  897  A    between atoms: CB_1569  and  SG_1570
REMARK  898  A    between atoms: N_1571  and  CA_1572
REMARK  899  A    between atoms: CA_1572  and  C_1573
REMARK  900  A    between atoms: CA_1572  and  CB_1575
REMARK  901  A    between atoms: CB_1575  and  CG_1576
REMARK  902  A    between atoms: CZ_1581  and  OH_1582
REMARK  903  A    between atoms: N_1583  and  CA_1584
REMARK  904  A    between atoms: CA_1584  and  C_1585
REMARK  905  A    between atoms: CA_1584  and  CB_1587
REMARK  906  A    between atoms: CB_1587  and  CG_1588
REMARK  907  A    between atoms: CG_1588  and  CD_1589
REMARK  908  A    between atoms: N_1592  and  CA_1593
REMARK  909  A    between atoms: CA_1593  and  C_1594
REMARK  910  A    between atoms: CA_1593  and  CB_1596
REMARK  911  A    between atoms: CB_1596  and  CG_1597
REMARK  912  A    between atoms: N_1603  and  CA_1604
REMARK  913  A    between atoms: CA_1604  and  C_1605
REMARK  914  A    between atoms: CA_1604  and  CB_1607
REMARK  915  A    between atoms: CB_1607  and  CG_1608
REMARK  916  A    between atoms: CG_1608  and  CD1_1609
REMARK  917  A    between atoms: CG_1608  and  CD2_1610
REMARK  918  A    between atoms: N_1611  and  CA_1612
REMARK  919  A    between atoms: CA_1612  and  C_1613
REMARK  920  A    between atoms: CA_1612  and  CB_1615
REMARK  921  A    between atoms: CB_1615  and  CG2_1616
REMARK  922  A    between atoms: CB_1615  and  CG1_1617
REMARK  923  A    between atoms: N_1618  and  CA_1619
REMARK  924  A    between atoms: CA_1619  and  C_1620
REMARK  925  A    between atoms: N_1622  and  C_1623
REMARK  926  A    between atoms: C_1623  and  C_1624
REMARK  927  A    between atoms: C_1623  and  C_1626
REMARK  928  A    between atoms: C_1626  and  C_1627
REMARK  929  A    between atoms: C_1627  and  C_1628
REMARK  930  A    between atoms: CA_1630  and  C_1631
REMARK  931  A    between atoms: CA_1637  and  C_1638
REMARK  932  A    between atoms: N_1643  and  CA_1644
REMARK  933  A    between atoms: CA_1644  and  C_1645
REMARK  934  A    between atoms: CA_1644  and  CB_1647
REMARK  935  A    between atoms: CB_1647  and  CG_1648
REMARK  936  A    between atoms: N_1654  and  CA_1655
REMARK  937  A    between atoms: CA_1655  and  C_1656
REMARK  938  A    between atoms: CA_1655  and  CB_1658
REMARK  939  A    between atoms: CB_1658  and  CG_1659
REMARK  940  A    between atoms: CG_1659  and  CD_1660
REMARK  941  A    between atoms: N_1663  and  CA_1664
REMARK  942  A    between atoms: CA_1664  and  C_1665
REMARK  943  A    between atoms: CA_1664  and  CB_1667
REMARK  944  A    between atoms: N_1668  and  CA_1669
REMARK  945  A    between atoms: CA_1669  and  C_1670
REMARK  946  A    between atoms: CA_1669  and  CB_1672
REMARK  947  A    between atoms: CB_1672  and  CG_1673
REMARK  948  A    between atoms: N_1676  and  CA_1677
REMARK  949  A    between atoms: CA_1677  and  C_1678
REMARK  950  A    between atoms: CA_1677  and  CB_1680
REMARK  951  A    between atoms: CB_1680  and  OG1_1681
REMARK  952  A    between atoms: CB_1680  and  CG2_1682
REMARK  953  A    between atoms: N_1683  and  CA_1684
REMARK  954  A    between atoms: CA_1684  and  C_1685
REMARK  955  A    between atoms: CA_1684  and  CB_1687
REMARK  956  A    between atoms: CB_1687  and  CG_1688
REMARK  957  A    between atoms: CZ_1693  and  OH_1694
REMARK  958  A    between atoms: N_1695  and  CA_1696
REMARK  959  A    between atoms: CA_1696  and  C_1697
REMARK  960  A    between atoms: CA_1696  and  CB_1699
REMARK  961  A    between atoms: CB_1699  and  CG_1700
REMARK  962  A    between atoms: CG_1700  and  CD_1701
REMARK  963  A    between atoms: N_1704  and  CA_1705
REMARK  964  A    between atoms: CA_1705  and  C_1706
REMARK  965  A    between atoms: CA_1705  and  CB_1708
REMARK  966  A    between atoms: CB_1708  and  CG_1709
REMARK  967  A    between atoms: CG_1709  and  CD_1710
REMARK  968  A    between atoms: N_1713  and  CA_1714
REMARK  969  A    between atoms: CA_1714  and  C_1715
REMARK  970  A    between atoms: CA_1714  and  CB_1717
REMARK  971  A    between atoms: CB_1717  and  OG1_1718
REMARK  972  A    between atoms: CB_1717  and  CG2_1719
REMARK  973  A    between atoms: N_1720  and  CA_1721
REMARK  974  A    between atoms: CA_1721  and  C_1722
REMARK  975  A    between atoms: CA_1721  and  CB_1724
REMARK  976  A    between atoms: CB_1724  and  CG_1725
REMARK  977  A    between atoms: CZ_1730  and  OH_1731
REMARK  978  A    between atoms: N_1732  and  CA_1733
REMARK  979  A    between atoms: CA_1733  and  C_1734
REMARK  980  A    between atoms: CA_1733  and  CB_1736
REMARK  981  A    between atoms: CB_1736  and  SG_1737
REMARK  982  A    between atoms: N_1738  and  C_1739
REMARK  983  A    between atoms: C_1739  and  C_1740
REMARK  984  A    between atoms: C_1739  and  C_1742
REMARK  985  A    between atoms: C_1742  and  C_1743
REMARK  986  A    between atoms: C_1743  and  C_1744
REMARK  987  A    between atoms: C_1744  and  N_1745
REMARK  988  A    between atoms: N_1746  and  CA_1747
REMARK  989  A    between atoms: CA_1747  and  C_1748
REMARK  990  A    between atoms: CA_1747  and  CB_1750
REMARK  991  A    between atoms: CB_1750  and  CG1_1751
REMARK  992  A    between atoms: CB_1750  and  CG2_1752
REMARK  993  A    between atoms: CG1_1751  and  CD1_1753
REMARK  994  A    between atoms: N_1754  and  C_1755
REMARK  995  A    between atoms: C_1755  and  C_1756
REMARK  996  A    between atoms: C_1755  and  C_1758
REMARK  997  A    between atoms: C_1758  and  O_1759
REMARK  998  A    between atoms: N_1760  and  C_1761
REMARK  999  A    between atoms: C_1761  and  C_1762
REMARK  1000  A    between atoms: C_1761  and  C_1764
REMARK  1001  A    between atoms: C_1764  and  C_1765
REMARK  1002  A    between atoms: C_1765  and  C_1766
REMARK  1003  A    between atoms: C_1766  and  N_1767
REMARK  1004  A    between atoms: N_1771  and  C_1772
REMARK  1005  A    between atoms: C_1772  and  C_1773
REMARK  1006  A    between atoms: C_1772  and  C_1775
REMARK  1007  A    between atoms: C_1775  and  C_1776
REMARK  1008  A    between atoms: C_1775  and  C_1777
REMARK  1009  A    between atoms: N_1778  and  C_1779
REMARK  1010  A    between atoms: C_1779  and  C_1780
REMARK  1011  A    between atoms: C_1779  and  C_1782
REMARK  1012  A    between atoms: C_1782  and  C_1783
REMARK  1013  A    between atoms: C_1783  and  C_1784
REMARK  1014  A    between atoms: N_1787  and  C_1788
REMARK  1015  A    between atoms: C_1788  and  C_1789
REMARK  1016  A    between atoms: C_1788  and  C_1791
REMARK  1017  A    between atoms: C_1791  and  C_1792
REMARK  1018  A    between atoms: N_1798  and  C_1799
REMARK  1019  A    between atoms: C_1799  and  C_1800
REMARK  1020  A    between atoms: C_1799  and  C_1802
REMARK  1021  A    between atoms: C_1802  and  O_1803
REMARK  1022  A    between atoms: C_1802  and  C_1804
REMARK  1023  A    between atoms: N_1805  and  C_1806
REMARK  1024  A    between atoms: C_1806  and  C_1807
REMARK  1025  A    between atoms: C_1806  and  C_1809
REMARK  1026  A    between atoms: C_1809  and  C_1810
REMARK  1027  A    between atoms: C_1817  and  C_1818
REMARK  1028  A    between atoms: N_1823  and  C_1824
REMARK  1029  A    between atoms: C_1824  and  C_1825
REMARK  1030  A    between atoms: C_1824  and  C_1827
REMARK  1031  A    between atoms: C_1827  and  C_1828
REMARK  1032  A    between atoms: N_1831  and  C_1832
REMARK  1033  A    between atoms: C_1832  and  C_1833
REMARK  1034  A    between atoms: C_1832  and  C_1835
REMARK  1035  A    between atoms: C_1835  and  C_1836
REMARK  1036  A    between atoms: N_1842  and  C_1843
REMARK  1037  A    between atoms: C_1843  and  C_1844
REMARK  1038  A    between atoms: C_1843  and  C_1846
REMARK  1039  A    between atoms: C_1846  and  C_1847
REMARK  1040  A    between atoms: C_1846  and  C_1848
REMARK  1041  A    between atoms: N_1849  and  C_1850
REMARK  1042  A    between atoms: C_1850  and  C_1851
REMARK  1043  A    between atoms: C_1850  and  C_1853
REMARK  1044  A    between atoms: C_1853  and  O_1854
REMARK  1045  A    between atoms: C_1853  and  C_1855
REMARK  1046  A    between atoms: N_1856  and  C_1857
REMARK  1047  A    between atoms: C_1858  and  C_1859
REMARK  1048  A    between atoms: C_1858  and  C_1861
REMARK  1049  A    between atoms: C_1862  and  C_1863
REMARK  1050  A    between atoms: C_1862  and  C_1864
REMARK  1051  A    between atoms: C_1863  and  C_1865
REMARK  1052  A    between atoms: N_1871  and  C_1872
REMARK  1053  A    between atoms: C_1872  and  C_1873
REMARK  1054  A    between atoms: N_1875  and  CA_1876
REMARK  1055  A    between atoms: CA_1876  and  C_1877
REMARK  1056  A    between atoms: CA_1876  and  CB_1879
REMARK  1057  A    between atoms: N_1880  and  CA_1881
REMARK  1058  A    between atoms: CA_1881  and  C_1882
REMARK  1059  A    between atoms: CA_1881  and  CB_1884
REMARK  1060  A    between atoms: CB_1884  and  CG_1885
REMARK  1061  A    between atoms: CG_1885  and  CD_1886
REMARK  1062  A    between atoms: CD_1886  and  NE_1887
REMARK  1063  A    between atoms: N_1891  and  CA_1892
REMARK  1064  A    between atoms: CA_1892  and  C_1893
REMARK  1065  A    between atoms: CA_1892  and  CB_1895
REMARK  1066  A    between atoms: CB_1895  and  CG_1896
REMARK  1067  A    between atoms: N_1899  and  CA_1900
REMARK  1068  A    between atoms: CA_1900  and  C_1901
REMARK  1069  A    between atoms: CA_1900  and  CB_1903
REMARK  1070  A    between atoms: CB_1903  and  CG_1904
REMARK  1071  A    between atoms: CG_1904  and  CD1_1905
REMARK  1072  A    between atoms: CG_1904  and  CD2_1906
REMARK  1073  A    between atoms: N_1907  and  CA_1908
REMARK  1074  A    between atoms: CA_1908  and  C_1909
REMARK  1075  A    between atoms: CA_1908  and  CB_1911
REMARK  1076  A    between atoms: CB_1911  and  CG1_1912
REMARK  1077  A    between atoms: CB_1911  and  CG2_1913
REMARK  1078  A    between atoms: CG1_1912  and  CD1_1914
REMARK  1079  A    between atoms: N_1915  and  CA_1916
REMARK  1080  A    between atoms: CA_1916  and  C_1917
REMARK  1081  A    between atoms: CA_1916  and  CB_1919
REMARK  1082  A    between atoms: CB_1919  and  OG_1920
REMARK  1083  A    between atoms: N_1921  and  CA_1922
REMARK  1084  A    between atoms: CA_1922  and  C_1923
REMARK  1085  A    between atoms: CA_1922  and  CB_1925
REMARK  1086  A    between atoms: CB_1925  and  CG_1926
REMARK  1087  A    between atoms: CG_1926  and  CD_1927
REMARK  1088  A    between atoms: CD_1927  and  NE_1928
REMARK  1089  A    between atoms: N_1932  and  CA_1933
REMARK  1090  A    between atoms: CA_1933  and  C_1934
REMARK  1091  A    between atoms: CA_1933  and  CB_1936
REMARK  1092  A    between atoms: CB_1936  and  CG_1937
REMARK  1093  A    between atoms: CG_1937  and  CD2_1938
REMARK  1094  A    between atoms: CG_1937  and  CD1_1939
REMARK  1095  A    between atoms: N_1940  and  CA_1941
REMARK  1096  A    between atoms: CA_1941  and  C_1942
REMARK  1097  A    between atoms: CA_1941  and  CB_1944
REMARK  1098  A    between atoms: CB_1944  and  CG_1945
REMARK  1099  A    between atoms: CG_1945  and  CD2_1946
REMARK  1100  A    between atoms: CG_1945  and  CD1_1947
REMARK  1101  A    between atoms: N_1948  and  CA_1949
REMARK  1102  A    between atoms: CA_1949  and  C_1950
REMARK  1103  A    between atoms: CA_1949  and  CB_1952
REMARK  1104  A    between atoms: CB_1952  and  CG_1953
REMARK  1105  A    between atoms: CG_1953  and  CD_1954
REMARK  1106  A    between atoms: CD_1954  and  CE_1955
REMARK  1107  A    between atoms: CE_1955  and  NZ_1956
REMARK  1108  A    between atoms: N_1957  and  CA_1958
REMARK  1109  A    between atoms: CA_1958  and  C_1959
REMARK  1110  A    between atoms: CA_1958  and  CB_1961
REMARK  1111  A    between atoms: CB_1961  and  CG_1962
REMARK  1112  A    between atoms: N_1967  and  CA_1968
REMARK  1113  A    between atoms: CA_1968  and  C_1969
REMARK  1114  A    between atoms: CA_1968  and  CB_1971
REMARK  1115  A    between atoms: CB_1971  and  CG_1972
REMARK  1116  A    between atoms: CA_1976  and  C_1977
REMARK  1117  A    between atoms: N_1982  and  C_1983
REMARK  1118  A    between atoms: C_1983  and  C_1984
REMARK  1119  A    between atoms: C_1983  and  C_1986
REMARK  1120  A    between atoms: C_1986  and  O_1987
REMARK  1121  A    between atoms: N_1988  and  C_1989
REMARK  1122  A    between atoms: C_1989  and  C_1990
REMARK  1123  A    between atoms: C_1989  and  C_1992
REMARK  1124  A    between atoms: C_1992  and  C_1993
REMARK  1125  A    between atoms: C_1993  and  C_1994
REMARK  1126  A    between atoms: N_1997  and  C_1998
REMARK  1127  A    between atoms: C_1998  and  C_1999
REMARK  1128  A    between atoms: C_1998  and  C_2001
REMARK  1129  A    between atoms: C_2001  and  C_2002
REMARK  1130  A    between atoms: C_2002  and  C_2003
REMARK  1131  A    between atoms: C_2003  and  N_2004
REMARK  1132  A    between atoms: C_2009  and  C_2010
REMARK  1133  A    between atoms: N_2015  and  C_2017
REMARK  1134  A    between atoms: C_2016  and  C_2018
REMARK  1135  A    between atoms: C_2016  and  C_2021
REMARK  1136  A    between atoms: C_2021  and  C_2022
REMARK  1137  A    between atoms: C_2022  and  C_2023
REMARK  1138  A    between atoms: C_2023  and  S_2024
REMARK  1139  A    between atoms: C_2023  and  S_2025
REMARK  1140  A    between atoms: S_2024  and  C_2026
REMARK  1141  A    between atoms: S_2025  and  C_2027
REMARK  1142  A    between atoms: N_2028  and  CA_2029
REMARK  1143  A    between atoms: CA_2029  and  C_2030
REMARK  1144  A    between atoms: CA_2029  and  CB_2032
REMARK  1145  A    between atoms: CB_2032  and  CG_2033
REMARK  1146  A    between atoms: CG_2033  and  CD1_2034
REMARK  1147  A    between atoms: CG_2033  and  CD2_2035
REMARK  1148  A    between atoms: N_2036  and  CA_2037
REMARK  1149  A    between atoms: CA_2037  and  C_2038
REMARK  1150  A    between atoms: CA_2037  and  CB_2040
REMARK  1151  A    between atoms: N_2041  and  CA_2042
REMARK  1152  A    between atoms: CA_2042  and  C_2043
REMARK  1153  A    between atoms: CA_2042  and  CB_2045
REMARK  1154  A    between atoms: CB_2045  and  CG_2046
REMARK  1155  A    between atoms: CG_2046  and  CD_2047
REMARK  1156  A    between atoms: N_2050  and  CA_2051
REMARK  1157  A    between atoms: CA_2051  and  C_2052
REMARK  1158  A    between atoms: CA_2051  and  CB_2054
REMARK  1159  A    between atoms: CB_2054  and  CG2_2055
REMARK  1160  A    between atoms: CB_2054  and  CG1_2056
REMARK  1161  A    between atoms: N_2057  and  CA_2058
REMARK  1162  A    between atoms: CA_2058  and  C_2059
REMARK  1163  A    between atoms: CA_2058  and  CB_2061
REMARK  1164  A    between atoms: CB_2061  and  CG_2062
REMARK  1165  A    between atoms: CG_2062  and  CD1_2063
REMARK  1166  A    between atoms: CG_2062  and  CD2_2064
REMARK  1167  A    between atoms: N_2065  and  CA_2066
REMARK  1168  A    between atoms: CA_2066  and  C_2067
REMARK  1169  A    between atoms: CA_2066  and  CB_2069
REMARK  1170  A    between atoms: CB_2069  and  CG_2070
REMARK  1171  A    between atoms: CG_2070  and  CD_2071
REMARK  1172  A    between atoms: N_2074  and  CA_2075
REMARK  1173  A    between atoms: CA_2075  and  C_2076
REMARK  1174  A    between atoms: CA_2075  and  CB_2078
REMARK  1175  A    between atoms: CB_2078  and  CG_2079
REMARK  1176  A    between atoms: CA_2085  and  C_2086
REMARK  1177  A    between atoms: N_2091  and  CA_2092
REMARK  1178  A    between atoms: CA_2092  and  C_2093
REMARK  1179  A    between atoms: CA_2092  and  CB_2095
REMARK  1180  A    between atoms: CB_2095  and  CG_2096
REMARK  1181  A    between atoms: N_2105  and  CA_2106
REMARK  1182  A    between atoms: CA_2106  and  C_2107
REMARK  1183  A    between atoms: CA_2106  and  CB_2109
REMARK  1184  A    between atoms: CB_2109  and  CG1_2110
REMARK  1185  A    between atoms: CB_2109  and  CG2_2111
REMARK  1186  A    between atoms: CG1_2110  and  CD1_2112
REMARK  1187  A    between atoms: N_2113  and  CA_2114
REMARK  1188  A    between atoms: CA_2114  and  C_2115
REMARK  1189  A    between atoms: CA_2114  and  CB_2117
REMARK  1190  A    between atoms: CB_2117  and  OG1_2118
REMARK  1191  A    between atoms: CB_2117  and  CG2_2119
REMARK  1192  A    between atoms: N_2120  and  CA_2121
REMARK  1193  A    between atoms: CA_2121  and  C_2122
REMARK  1194  A    between atoms: CA_2121  and  CB_2124
REMARK  1195  A    between atoms: N_2125  and  CA_2126
REMARK  1196  A    between atoms: CA_2126  and  C_2127
REMARK  1197  A    between atoms: CA_2126  and  CB_2129
REMARK  1198  A    between atoms: CB_2129  and  CG_2130
REMARK  1199  A    between atoms: N_2133  and  CA_2134
REMARK  1200  A    between atoms: CA_2134  and  C_2135
REMARK  1201  A    between atoms: CA_2134  and  CB_2137
REMARK  1202  A    between atoms: CB_2137  and  OG_2138
REMARK  1203  A    between atoms: N_2139  and  CA_2140
REMARK  1204  A    between atoms: CA_2140  and  C_2141
REMARK  1205  A    between atoms: CA_2140  and  CB_2143
REMARK  1206  A    between atoms: CB_2143  and  OG_2144
REMARK  1207  A    between atoms: N_2145  and  C_2146
REMARK  1208  A    between atoms: C_2146  and  C_2147
REMARK  1209  A    between atoms: C_2146  and  C_2149
REMARK  1210  A    between atoms: C_2149  and  C_2150
REMARK  1211  A    between atoms: N_2151  and  CA_2152
REMARK  1212  A    between atoms: CA_2152  and  C_2153
REMARK  1213  A    between atoms: CA_2152  and  CB_2155
REMARK  1214  A    between atoms: CB_2155  and  OG_2156
REMARK  1215  A    between atoms: N_2157  and  CA_2158
REMARK  1216  A    between atoms: CA_2158  and  C_2159
REMARK  1217  A    between atoms: CA_2158  and  CB_2161
REMARK  1218  A    between atoms: CB_2161  and  CG_2162
REMARK  1219  A    between atoms: CG_2162  and  CD_2163
REMARK  1220  A    between atoms: CA_2167  and  C_2168
REMARK  1221  A    between atoms: CA_2174  and  C_2175
REMARK  1222  A    between atoms: N_2180  and  CA_2181
REMARK  1223  A    between atoms: CA_2181  and  C_2182
REMARK  1224  A    between atoms: CA_2181  and  CB_2184
REMARK  1225  A    between atoms: CB_2184  and  OG_2185
REMARK  1226  A    between atoms: N_2186  and  CA_2187
REMARK  1227  A    between atoms: CA_2187  and  C_2188
REMARK  1228  A    between atoms: CA_2187  and  CB_2190
REMARK  1229  A    between atoms: CB_2190  and  CG_2191
REMARK  1230  A    between atoms: N_2200  and  CA_2201
REMARK  1231  A    between atoms: CA_2201  and  C_2202
REMARK  1232  A    between atoms: CA_2201  and  CB_2204
REMARK  1233  A    between atoms: CB_2204  and  CG2_2205
REMARK  1234  A    between atoms: CB_2204  and  CG1_2206
REMARK  1235  A    between atoms: N_2207  and  CA_2208
REMARK  1236  A    between atoms: CA_2208  and  C_2209
REMARK  1237  A    between atoms: CA_2208  and  CB_2211
REMARK  1238  A    between atoms: CB_2211  and  OG1_2212
REMARK  1239  A    between atoms: CB_2211  and  CG2_2213
REMARK  1240  A    between atoms: N_2214  and  CA_2215
REMARK  1241  A    between atoms: CA_2215  and  C_2216
REMARK  1242  A    between atoms: CA_2215  and  CB_2218
REMARK  1243  A    between atoms: CB_2218  and  CG_2219
REMARK  1244  A    between atoms: CG_2219  and  CD_2220
REMARK  1245  A    between atoms: N_2223  and  CA_2224
REMARK  1246  A    between atoms: CA_2224  and  C_2225
REMARK  1247  A    between atoms: CA_2224  and  CB_2227
REMARK  1248  A    between atoms: CB_2227  and  CG_2228
REMARK  1249  A    between atoms: CG_2228  and  SD_2229
REMARK  1250  A    between atoms: SD_2229  and  CE_2230
REMARK  1251  A    between atoms: N_2231  and  CA_2232
REMARK  1252  A    between atoms: CA_2232  and  C_2233
REMARK  1253  A    between atoms: CA_2232  and  CB_2235
REMARK  1254  A    between atoms: CB_2235  and  CG_2236
REMARK  1255  A    between atoms: CG_2236  and  CD1_2237
REMARK  1256  A    between atoms: CG_2236  and  CD2_2238
REMARK  1257  A    between atoms: N_2239  and  CA_2240
REMARK  1258  A    between atoms: CA_2240  and  C_2241
REMARK  1259  A    between atoms: CA_2240  and  CB_2243
REMARK  1260  A    between atoms: CB_2243  and  CG_2244
REMARK  1261  A    between atoms: CG_2244  and  CD1_2245
REMARK  1262  A    between atoms: CG_2244  and  CD2_2246
REMARK  1263  A    between atoms: N_2247  and  CA_2248
REMARK  1264  A    between atoms: CA_2248  and  C_2249
REMARK  1265  A    between atoms: CA_2248  and  CB_2251
REMARK  1266  A    between atoms: CB_2251  and  CG_2252
REMARK  1267  A    between atoms: CG_2252  and  CD_2253
REMARK  1268  A    between atoms: N_2256  and  CA_2257
REMARK  1269  A    between atoms: CA_2257  and  C_2258
REMARK  1270  A    between atoms: CA_2257  and  CB_2260
REMARK  1271  A    between atoms: CB_2260  and  CG_2261
REMARK  1272  A    between atoms: CG_2261  and  CD_2262
REMARK  1273  A    between atoms: CD_2262  and  CE_2263
REMARK  1274  A    between atoms: CE_2263  and  NZ_2264
REMARK  1275  A    between atoms: N_2265  and  C_2266
REMARK  1276  A    between atoms: C_2266  and  C_2267
REMARK  1277  A    between atoms: C_2266  and  C_2269
REMARK  1278  A    between atoms: C_2269  and  C_2270
REMARK  1279  A    between atoms: N_2271  and  CA_2272
REMARK  1280  A    between atoms: CA_2272  and  C_2273
REMARK  1281  A    between atoms: CA_2272  and  CB_2275
REMARK  1282  A    between atoms: CB_2275  and  CG_2276
REMARK  1283  A    between atoms: CG_2276  and  CD2_2277
REMARK  1284  A    between atoms: CG_2276  and  CD1_2278
REMARK  1285  A    between atoms: N_2279  and  CA_2280
REMARK  1286  A    between atoms: CA_2280  and  C_2281
REMARK  1287  A    between atoms: CA_2280  and  CB_2283
REMARK  1288  A    between atoms: CB_2283  and  CG_2284
REMARK  1289  A    between atoms: N_2293  and  CA_2294
REMARK  1290  A    between atoms: CA_2294  and  C_2295
REMARK                            x       y       z     vdW  Elec       q    Type
REMARK                         _______ _______ _______ _____ _____    ______ ____
ROOT
ATOM      1  C   UNL    10     -54.533  57.066  18.990  0.00  0.00    +0.051 C 
ENDROOT
BRANCH   1   2
ATOM      2  C   UNL    10     -54.681  56.022  20.100  0.00  0.00    +0.042 C 
ATOM      3  O   UNL    10     -54.033  56.168  21.158  0.00  0.00    -0.550 OA
ATOM      4  O   UNL    10     -55.450  55.052  19.909  0.00  0.00    -0.550 OA
ENDBRANCH   1   2
BRANCH   1   5
ATOM      5  C   UNL    10     -52.955  57.417  18.470  0.00  0.00    +0.002 C 
ATOM      6  C   UNL    10     -54.052  57.648  17.441  0.00  0.00    +0.004 C 
ENDBRANCH   1   5
TORSDOF 2
REMARK  Name = /Users/wangyang/Desktop/Breast_cancer_brain_metastasis/wang_Gene/AIDD/15_Protein_ligand_docking/data_7ztl/protein.pdb
REMARK  1290 active torsions:
REMARK  status: ('A' for Active; 'I' for Inactive)
REMARK    1  A    between atoms: N_1  and  CA_2
REMARK    2  A    between atoms: CA_2  and  C_3
REMARK    3  A    between atoms: N_5  and  CA_6
REMARK    4  A    between atoms: CA_6  and  C_7
REMARK    5  A    between atoms: CA_6  and  CB_9
REMARK    6  A    between atoms: N_10  and  CA_11
REMARK    7  A    between atoms: CA_11  and  C_12
REMARK    8  A    between atoms: CA_11  and  CB_14
REMARK    9  A    between atoms: CB_14  and  CG_15
REMARK   10  A    between atoms: N_24  and  CA_25
REMARK   11  A    between atoms: CA_25  and  C_26
REMARK   12  A    between atoms: CA_25  and  CB_28
REMARK   13  A    between atoms: N_29  and  CA_30
REMARK   14  A    between atoms: CA_30  and  C_31
REMARK   15  A    between atoms: CA_30  and  CB_33
REMARK   16  A    between atoms: CB_33  and  CG_34
REMARK   17  A    between atoms: CG_34  and  CD1_35
REMARK   18  A    between atoms: CG_34  and  CD2_36
REMARK   19  A    between atoms: N_37  and  CA_38
REMARK   20  A    between atoms: CA_38  and  C_39
REMARK   21  A    between atoms: CA_38  and  CB_41
REMARK   22  A    between atoms: CB_41  and  CG_42
REMARK   23  A    between atoms: CG_42  and  CD_43
REMARK   24  A    between atoms: N_46  and  CA_47
REMARK   25  A    between atoms: CA_47  and  C_48
REMARK   26  A    between atoms: CA_47  and  CB_50
REMARK   27  A    between atoms: CB_50  and  CG_51
REMARK   28  A    between atoms: N_54  and  CA_55
REMARK   29  A    between atoms: CA_55  and  C_56
REMARK   30  A    between atoms: CA_55  and  CB_58
REMARK   31  A    between atoms: CB_58  and  CG_59
REMARK   32  A    between atoms: N_65  and  CA_66
REMARK   33  A    between atoms: CA_66  and  C_67
REMARK   34  A    between atoms: CA_66  and  CB_69
REMARK   35  A    between atoms: CB_69  and  CG_70
REMARK   36  A    between atoms: CG_70  and  CD_71
REMARK   37  A    between atoms: N_74  and  CA_75
REMARK   38  A    between atoms: CA_75  and  C_76
REMARK   39  A    between atoms: CA_75  and  CB_78
REMARK   40  A    between atoms: CB_78  and  CG1_79
REMARK   41  A    between atoms: CB_78  and  CG2_80
REMARK   42  A    between atoms: CG1_79  and  CD1_81
REMARK   43  A    between atoms: N_82  and  CA_83
REMARK   44  A    between atoms: CA_83  and  C_84
REMARK   45  A    between atoms: N_86  and  CA_87
REMARK   46  A    between atoms: CA_87  and  C_88
REMARK   47  A    between atoms: CA_87  and  CB_90
REMARK   48  A    between atoms: CB_90  and  CG_91
REMARK   49  A    between atoms: CG_91  and  CD_92
REMARK   50  A    between atoms: CD_92  and  NE_93
REMARK   51  A    between atoms: CA_98  and  C_99
REMARK   52  A    between atoms: N_104  and  CA_105
REMARK   53  A    between atoms: CA_105  and  C_106
REMARK   54  A    between atoms: CA_105  and  CB_108
REMARK   55  A    between atoms: CB_108  and  CG_109
REMARK   56  A    between atoms: CG_109  and  CD1_110
REMARK   57  A    between atoms: CG_109  and  CD2_111
REMARK   58  A    between atoms: N_112  and  CA_113
REMARK   59  A    between atoms: CA_113  and  C_114
REMARK   60  A    between atoms: N_116  and  C_117
REMARK   61  A    between atoms: C_117  and  C_118
REMARK   62  A    between atoms: C_117  and  C_120
REMARK   63  A    between atoms: C_120  and  C_121
REMARK   64  A    between atoms: C_121  and  C_122
REMARK   65  A    between atoms: N_123  and  CA_124
REMARK   66  A    between atoms: CA_124  and  C_125
REMARK   67  A    between atoms: N_127  and  CA_128
REMARK   68  A    between atoms: CA_128  and  C_129
REMARK   69  A    between atoms: CA_128  and  CB_131
REMARK   70  A    between atoms: CB_131  and  CG_132
REMARK   71  A    between atoms: CG_132  and  CD_133
REMARK   72  A    between atoms: CD_133  and  CE_134
REMARK   73  A    between atoms: CE_134  and  NZ_135
REMARK   74  A    between atoms: N_136  and  CA_137
REMARK   75  A    between atoms: CA_137  and  C_138
REMARK   76  A    between atoms: CA_137  and  CB_140
REMARK   77  A    between atoms: CB_140  and  CG_141
REMARK   78  A    between atoms: N_147  and  CA_148
REMARK   79  A    between atoms: CA_148  and  C_149
REMARK   80  A    between atoms: N_151  and  CA_152
REMARK   81  A    between atoms: CA_152  and  C_153
REMARK   82  A    between atoms: CA_152  and  CB_155
REMARK   83  A    between atoms: CB_155  and  CG_156
REMARK   84  A    between atoms: N_159  and  CA_160
REMARK   85  A    between atoms: CA_160  and  C_161
REMARK   86  A    between atoms: CA_160  and  CB_163
REMARK   87  A    between atoms: CB_163  and  CG1_164
REMARK   88  A    between atoms: CB_163  and  CG2_165
REMARK   89  A    between atoms: N_166  and  CA_167
REMARK   90  A    between atoms: CA_167  and  C_168
REMARK   91  A    between atoms: CA_167  and  CB_170
REMARK   92  A    between atoms: CB_170  and  CG_171
REMARK   93  A    between atoms: CZ_176  and  OH_177
REMARK   94  A    between atoms: N_178  and  CA_179
REMARK   95  A    between atoms: CA_179  and  C_180
REMARK   96  A    between atoms: CA_179  and  CB_182
REMARK   97  A    between atoms: CB_182  and  CG_183
REMARK   98  A    between atoms: CG_183  and  CD1_184
REMARK   99  A    between atoms: CG_183  and  CD2_185
REMARK  100  A    between atoms: N_186  and  CA_187
REMARK  101  A    between atoms: CA_187  and  C_188
REMARK  102  A    between atoms: CA_187  and  CB_190
REMARK  103  A    between atoms: N_191  and  CA_192
REMARK  104  A    between atoms: CA_192  and  C_193
REMARK  105  A    between atoms: CA_192  and  CB_195
REMARK  106  A    between atoms: CB_195  and  CG_196
REMARK  107  A    between atoms: CG_196  and  CD_197
REMARK  108  A    between atoms: CD_197  and  NE_198
REMARK  109  A    between atoms: N_202  and  CA_203
REMARK  110  A    between atoms: CA_203  and  C_204
REMARK  111  A    between atoms: CA_203  and  CB_206
REMARK  112  A    between atoms: CB_206  and  CG_207
REMARK  113  A    between atoms: CG_207  and  CD_208
REMARK  114  A    between atoms: N_211  and  CA_212
REMARK  115  A    between atoms: CA_212  and  C_213
REMARK  116  A    between atoms: CA_212  and  CB_215
REMARK  117  A    between atoms: CB_215  and  CG_216
REMARK  118  A    between atoms: CG_216  and  CD_217
REMARK  119  A    between atoms: CD_217  and  CE_218
REMARK  120  A    between atoms: CE_218  and  NZ_219
REMARK  121  A    between atoms: N_220  and  CA_221
REMARK  122  A    between atoms: CA_221  and  C_222
REMARK  123  A    between atoms: CA_221  and  CB_224
REMARK  124  A    between atoms: N_225  and  CA_226
REMARK  125  A    between atoms: CA_226  and  C_227
REMARK  126  A    between atoms: CA_226  and  CB_229
REMARK  127  A    between atoms: CB_229  and  OG_230
REMARK  128  A    between atoms: N_231  and  CA_232
REMARK  129  A    between atoms: CA_232  and  C_233
REMARK  130  A    between atoms: CA_232  and  CB_235
REMARK  131  A    between atoms: CB_235  and  CG_236
REMARK  132  A    between atoms: CG_236  and  CD_237
REMARK  133  A    between atoms: CD_237  and  CE_238
REMARK  134  A    between atoms: CE_238  and  NZ_239
REMARK  135  A    between atoms: N_240  and  CA_241
REMARK  136  A    between atoms: CA_241  and  C_242
REMARK  137  A    between atoms: CA_241  and  CB_244
REMARK  138  A    between atoms: CB_244  and  CG_245
REMARK  139  A    between atoms: N_251  and  CA_252
REMARK  140  A    between atoms: CA_252  and  C_253
REMARK  141  A    between atoms: CA_252  and  CB_255
REMARK  142  A    between atoms: CB_255  and  CG1_256
REMARK  143  A    between atoms: CB_255  and  CG2_257
REMARK  144  A    between atoms: CG1_256  and  CD1_258
REMARK  145  A    between atoms: N_259  and  CA_260
REMARK  146  A    between atoms: CA_260  and  C_261
REMARK  147  A    between atoms: CA_260  and  CB_263
REMARK  148  A    between atoms: CB_263  and  CG_264
REMARK  149  A    between atoms: CG_264  and  CD1_265
REMARK  150  A    between atoms: CG_264  and  CD2_266
REMARK  151  A    between atoms: N_267  and  CA_268
REMARK  152  A    between atoms: CA_268  and  C_269
REMARK  153  A    between atoms: CA_268  and  CB_271
REMARK  154  A    between atoms: N_272  and  CA_273
REMARK  155  A    between atoms: CA_273  and  C_274
REMARK  156  A    between atoms: CA_273  and  CB_276
REMARK  157  A    between atoms: CB_276  and  CG_277
REMARK  158  A    between atoms: CG_277  and  CD2_278
REMARK  159  A    between atoms: CG_277  and  CD1_279
REMARK  160  A    between atoms: N_280  and  CA_281
REMARK  161  A    between atoms: CA_281  and  C_282
REMARK  162  A    between atoms: CA_281  and  CB_284
REMARK  163  A    between atoms: CB_284  and  CG_285
REMARK  164  A    between atoms: CG_285  and  CD_286
REMARK  165  A    between atoms: CD_286  and  CE_287
REMARK  166  A    between atoms: CE_287  and  NZ_288
REMARK  167  A    between atoms: N_289  and  CA_290
REMARK  168  A    between atoms: CA_290  and  C_291
REMARK  169  A    between atoms: CA_290  and  CB_293
REMARK  170  A    between atoms: CB_293  and  CG2_294
REMARK  171  A    between atoms: CB_293  and  CG1_295
REMARK  172  A    between atoms: N_296  and  CA_297
REMARK  173  A    between atoms: CA_297  and  C_298
REMARK  174  A    between atoms: CA_297  and  CB_300
REMARK  175  A    between atoms: CB_300  and  CG_301
REMARK  176  A    between atoms: CG_301  and  CD1_302
REMARK  177  A    between atoms: CG_301  and  CD2_303
REMARK  178  A    between atoms: N_304  and  CA_305
REMARK  179  A    between atoms: CA_305  and  C_306
REMARK  180  A    between atoms: CA_305  and  CB_308
REMARK  181  A    between atoms: CB_308  and  CG_309
REMARK  182  A    between atoms: N_315  and  CA_316
REMARK  183  A    between atoms: CA_316  and  C_317
REMARK  184  A    between atoms: CA_316  and  CB_319
REMARK  185  A    between atoms: CB_319  and  CG_320
REMARK  186  A    between atoms: CG_320  and  CD_321
REMARK  187  A    between atoms: CD_321  and  CE_322
REMARK  188  A    between atoms: CE_322  and  NZ_323
REMARK  189  A    between atoms: N_324  and  CA_325
REMARK  190  A    between atoms: CA_325  and  C_326
REMARK  191  A    between atoms: CA_325  and  CB_328
REMARK  192  A    between atoms: N_329  and  CA_330
REMARK  193  A    between atoms: CA_330  and  C_331
REMARK  194  A    between atoms: CA_330  and  CB_333
REMARK  195  A    between atoms: CB_333  and  CG_334
REMARK  196  A    between atoms: CG_334  and  CD_335
REMARK  197  A    between atoms: N_338  and  CA_339
REMARK  198  A    between atoms: CA_339  and  C_340
REMARK  199  A    between atoms: CA_339  and  CB_342
REMARK  200  A    between atoms: CB_342  and  CG_343
REMARK  201  A    between atoms: CG_343  and  CD1_344
REMARK  202  A    between atoms: CG_343  and  CD2_345
REMARK  203  A    between atoms: N_346  and  CA_347
REMARK  204  A    between atoms: CA_347  and  C_348
REMARK  205  A    between atoms: CA_347  and  CB_350
REMARK  206  A    between atoms: CB_350  and  CG_351
REMARK  207  A    between atoms: CG_351  and  CD_352
REMARK  208  A    between atoms: N_355  and  C_356
REMARK  209  A    between atoms: C_356  and  C_357
REMARK  210  A    between atoms: C_356  and  C_359
REMARK  211  A    between atoms: C_359  and  C_360
REMARK  212  A    between atoms: N_361  and  CA_362
REMARK  213  A    between atoms: CA_362  and  C_363
REMARK  214  A    between atoms: CA_362  and  CB_365
REMARK  215  A    between atoms: N_366  and  CA_367
REMARK  216  A    between atoms: CA_367  and  C_368
REMARK  217  A    between atoms: N_370  and  CA_371
REMARK  218  A    between atoms: CA_371  and  C_372
REMARK  219  A    between atoms: CA_371  and  CB_374
REMARK  220  A    between atoms: CB_374  and  CG2_375
REMARK  221  A    between atoms: CB_374  and  CG1_376
REMARK  222  A    between atoms: N_377  and  CA_378
REMARK  223  A    between atoms: CA_378  and  C_379
REMARK  224  A    between atoms: CA_378  and  CB_381
REMARK  225  A    between atoms: CB_381  and  CG_382
REMARK  226  A    between atoms: CG_382  and  CD_383
REMARK  227  A    between atoms: N_386  and  CA_387
REMARK  228  A    between atoms: CA_387  and  C_388
REMARK  229  A    between atoms: CA_387  and  CB_390
REMARK  230  A    between atoms: CB_390  and  CG_391
REMARK  231  A    between atoms: N_396  and  CA_397
REMARK  232  A    between atoms: CA_397  and  C_398
REMARK  233  A    between atoms: CA_397  and  CB_400
REMARK  234  A    between atoms: CB_400  and  CG_401
REMARK  235  A    between atoms: CG_401  and  CD_402
REMARK  236  A    between atoms: N_405  and  CA_406
REMARK  237  A    between atoms: CA_406  and  C_407
REMARK  238  A    between atoms: CA_406  and  CB_409
REMARK  239  A    between atoms: CB_409  and  CG_410
REMARK  240  A    between atoms: CG_410  and  CD2_411
REMARK  241  A    between atoms: CG_410  and  CD1_412
REMARK  242  A    between atoms: N_413  and  CA_414
REMARK  243  A    between atoms: CA_414  and  C_415
REMARK  244  A    between atoms: CA_414  and  CB_417
REMARK  245  A    between atoms: CB_417  and  CG_418
REMARK  246  A    between atoms: CG_418  and  CD_419
REMARK  247  A    between atoms: CD_419  and  NE_420
REMARK  248  A    between atoms: N_424  and  CA_425
REMARK  249  A    between atoms: CA_425  and  C_426
REMARK  250  A    between atoms: CA_425  and  CB_428
REMARK  251  A    between atoms: CB_428  and  CG_429
REMARK  252  A    between atoms: CG_429  and  CD_430
REMARK  253  A    between atoms: CD_430  and  NE_431
REMARK  254  A    between atoms: N_435  and  CA_436
REMARK  255  A    between atoms: CA_436  and  C_437
REMARK  256  A    between atoms: CA_436  and  CB_439
REMARK  257  A    between atoms: CB_439  and  CG_440
REMARK  258  A    between atoms: CG_440  and  CD_441
REMARK  259  A    between atoms: N_444  and  CA_445
REMARK  260  A    between atoms: CA_445  and  C_446
REMARK  261  A    between atoms: CA_445  and  CB_448
REMARK  262  A    between atoms: CB_448  and  CG1_449
REMARK  263  A    between atoms: CB_448  and  CG2_450
REMARK  264  A    between atoms: N_451  and  C_452
REMARK  265  A    between atoms: C_452  and  C_453
REMARK  266  A    between atoms: C_452  and  C_455
REMARK  267  A    between atoms: C_455  and  C_456
REMARK  268  A    between atoms: N_457  and  CA_458
REMARK  269  A    between atoms: CA_458  and  C_459
REMARK  270  A    between atoms: CA_458  and  CB_461
REMARK  271  A    between atoms: CB_461  and  CG1_462
REMARK  272  A    between atoms: CB_461  and  CG2_463
REMARK  273  A    between atoms: CG1_462  and  CD1_464
REMARK  274  A    between atoms: N_465  and  CA_466
REMARK  275  A    between atoms: CA_466  and  C_467
REMARK  276  A    between atoms: CA_466  and  CB_469
REMARK  277  A    between atoms: CB_469  and  CG_470
REMARK  278  A    between atoms: CG_470  and  CD_471
REMARK  279  A    between atoms: N_474  and  C_475
REMARK  280  A    between atoms: C_475  and  C_476
REMARK  281  A    between atoms: C_475  and  C_478
REMARK  282  A    between atoms: C_478  and  O_479
REMARK  283  A    between atoms: N_480  and  C_481
REMARK  284  A    between atoms: C_481  and  C_482
REMARK  285  A    between atoms: C_481  and  C_484
REMARK  286  A    between atoms: C_484  and  C_485
REMARK  287  A    between atoms: N_490  and  C_491
REMARK  288  A    between atoms: C_491  and  C_492
REMARK  289  A    between atoms: C_491  and  C_494
REMARK  290  A    between atoms: C_494  and  C_495
REMARK  291  A    between atoms: C_495  and  C_496
REMARK  292  A    between atoms: C_495  and  C_497
REMARK  293  A    between atoms: N_498  and  C_499
REMARK  294  A    between atoms: C_499  and  C_500
REMARK  295  A    between atoms: C_499  and  C_502
REMARK  296  A    between atoms: C_502  and  C_503
REMARK  297  A    between atoms: C_503  and  C_504
REMARK  298  A    between atoms: C_504  and  N_505
REMARK  299  A    between atoms: N_509  and  C_510
REMARK  300  A    between atoms: C_510  and  C_511
REMARK  301  A    between atoms: C_510  and  C_513
REMARK  302  A    between atoms: C_513  and  C_514
REMARK  303  A    between atoms: C_520  and  C_521
REMARK  304  A    between atoms: N_526  and  C_527
REMARK  305  A    between atoms: C_527  and  C_528
REMARK  306  A    between atoms: C_527  and  C_530
REMARK  307  A    between atoms: C_530  and  C_531
REMARK  308  A    between atoms: N_534  and  C_535
REMARK  309  A    between atoms: C_535  and  C_536
REMARK  310  A    between atoms: C_535  and  C_538
REMARK  311  A    between atoms: C_538  and  C_539
REMARK  312  A    between atoms: C_538  and  C_540
REMARK  313  A    between atoms: C_539  and  C_541
REMARK  314  A    between atoms: N_542  and  C_543
REMARK  315  A    between atoms: C_543  and  C_544
REMARK  316  A    between atoms: C_543  and  C_546
REMARK  317  A    between atoms: C_546  and  C_547
REMARK  318  A    between atoms: C_547  and  C_548
REMARK  319  A    between atoms: C_547  and  C_549
REMARK  320  A    between atoms: N_550  and  C_551
REMARK  321  A    between atoms: C_551  and  C_552
REMARK  322  A    between atoms: C_551  and  C_554
REMARK  323  A    between atoms: C_554  and  C_555
REMARK  324  A    between atoms: C_555  and  C_556
REMARK  325  A    between atoms: C_556  and  N_557
REMARK  326  A    between atoms: N_561  and  C_562
REMARK  327  A    between atoms: C_562  and  C_567
REMARK  328  A    between atoms: C_563  and  C_564
REMARK  329  A    between atoms: C_568  and  C_569
REMARK  330  A    between atoms: C_568  and  C_571
REMARK  331  A    between atoms: C_569  and  C_572
REMARK  332  A    between atoms: C_569  and  C_573
REMARK  333  A    between atoms: C_570  and  C_573
REMARK  334  A    between atoms: N_574  and  CA_575
REMARK  335  A    between atoms: CA_575  and  C_576
REMARK  336  A    between atoms: CA_575  and  CB_578
REMARK  337  A    between atoms: CB_578  and  CG_579
REMARK  338  A    between atoms: CZ_584  and  OH_585
REMARK  339  A    between atoms: N_586  and  CA_587
REMARK  340  A    between atoms: CA_587  and  C_588
REMARK  341  A    between atoms: N_590  and  CA_591
REMARK  342  A    between atoms: CA_591  and  C_592
REMARK  343  A    between atoms: CA_591  and  CB_594
REMARK  344  A    between atoms: CB_594  and  CG_595
REMARK  345  A    between atoms: CZ_600  and  OH_601
REMARK  346  A    between atoms: N_602  and  CA_603
REMARK  347  A    between atoms: CA_603  and  C_604
REMARK  348  A    between atoms: CA_603  and  CB_606
REMARK  349  A    between atoms: CB_606  and  CG_607
REMARK  350  A    between atoms: N_613  and  CA_614
REMARK  351  A    between atoms: CA_614  and  C_615
REMARK  352  A    between atoms: CA_614  and  CB_617
REMARK  353  A    between atoms: CB_617  and  CG_618
REMARK  354  A    between atoms: N_623  and  CA_624
REMARK  355  A    between atoms: CA_624  and  C_625
REMARK  356  A    between atoms: CA_624  and  CB_627
REMARK  357  A    between atoms: CB_627  and  CG_628
REMARK  358  A    between atoms: N_631  and  CA_632
REMARK  359  A    between atoms: CA_632  and  C_633
REMARK  360  A    between atoms: CA_632  and  CB_635
REMARK  361  A    between atoms: N_636  and  CA_637
REMARK  362  A    between atoms: CA_637  and  C_638
REMARK  363  A    between atoms: CA_637  and  CB_640
REMARK  364  A    between atoms: CB_640  and  OG1_641
REMARK  365  A    between atoms: CB_640  and  CG2_642
REMARK  366  A    between atoms: N_643  and  CA_644
REMARK  367  A    between atoms: CA_644  and  C_645
REMARK  368  A    between atoms: CA_644  and  CB_647
REMARK  369  A    between atoms: CB_647  and  CG_648
REMARK  370  A    between atoms: CG_648  and  CD_649
REMARK  371  A    between atoms: CD_649  and  NE_650
REMARK  372  A    between atoms: N_654  and  CA_655
REMARK  373  A    between atoms: CA_655  and  C_656
REMARK  374  A    between atoms: CA_655  and  CB_658
REMARK  375  A    between atoms: CB_658  and  CG1_659
REMARK  376  A    between atoms: CB_658  and  CG2_660
REMARK  377  A    between atoms: N_661  and  CA_662
REMARK  378  A    between atoms: CA_662  and  C_663
REMARK  379  A    between atoms: CA_662  and  CB_665
REMARK  380  A    between atoms: CB_665  and  CG_666
REMARK  381  A    between atoms: CZ_671  and  OH_672
REMARK  382  A    between atoms: N_673  and  CA_674
REMARK  383  A    between atoms: CA_674  and  C_675
REMARK  384  A    between atoms: CA_674  and  CB_677
REMARK  385  A    between atoms: CB_677  and  CG_678
REMARK  386  A    between atoms: CG_678  and  CD2_679
REMARK  387  A    between atoms: CG_678  and  CD1_680
REMARK  388  A    between atoms: N_681  and  CA_682
REMARK  389  A    between atoms: CA_682  and  C_683
REMARK  390  A    between atoms: CA_682  and  CB_685
REMARK  391  A    between atoms: CB_685  and  CG1_686
REMARK  392  A    between atoms: CB_685  and  CG2_687
REMARK  393  A    between atoms: CG1_686  and  CD1_688
REMARK  394  A    between atoms: N_689  and  CA_690
REMARK  395  A    between atoms: CA_690  and  C_691
REMARK  396  A    between atoms: CA_690  and  CB_693
REMARK  397  A    between atoms: CB_693  and  CG_694
REMARK  398  A    between atoms: CG_694  and  CD2_695
REMARK  399  A    between atoms: CG_694  and  CD1_696
REMARK  400  A    between atoms: N_697  and  CA_698
REMARK  401  A    between atoms: CA_698  and  C_699
REMARK  402  A    between atoms: CA_698  and  CB_701
REMARK  403  A    between atoms: CB_701  and  CG_702
REMARK  404  A    between atoms: CG_702  and  CD_703
REMARK  405  A    between atoms: N_706  and  CA_707
REMARK  406  A    between atoms: CA_707  and  C_708
REMARK  407  A    between atoms: CA_707  and  CB_710
REMARK  408  A    between atoms: CB_710  and  CG_711
REMARK  409  A    between atoms: CZ_716  and  OH_717
REMARK  410  A    between atoms: N_718  and  CA_719
REMARK  411  A    between atoms: CA_719  and  C_720
REMARK  412  A    between atoms: CA_719  and  CB_722
REMARK  413  A    between atoms: CA_724  and  C_725
REMARK  414  A    between atoms: N_730  and  CA_731
REMARK  415  A    between atoms: CA_731  and  C_732
REMARK  416  A    between atoms: CA_731  and  CB_734
REMARK  417  A    between atoms: CB_734  and  CG_735
REMARK  418  A    between atoms: CG_735  and  CD1_736
REMARK  419  A    between atoms: CG_735  and  CD2_737
REMARK  420  A    between atoms: N_738  and  CA_739
REMARK  421  A    between atoms: CA_739  and  C_740
REMARK  422  A    between atoms: N_742  and  CA_743
REMARK  423  A    between atoms: CA_743  and  C_744
REMARK  424  A    between atoms: CA_743  and  CB_746
REMARK  425  A    between atoms: CB_746  and  OG1_747
REMARK  426  A    between atoms: CB_746  and  CG2_748
REMARK  427  A    between atoms: N_749  and  CA_750
REMARK  428  A    between atoms: CA_750  and  C_751
REMARK  429  A    between atoms: CA_750  and  CB_753
REMARK  430  A    between atoms: CB_753  and  CG2_754
REMARK  431  A    between atoms: CB_753  and  CG1_755
REMARK  432  A    between atoms: N_756  and  CA_757
REMARK  433  A    between atoms: CA_757  and  C_758
REMARK  434  A    between atoms: CA_757  and  CB_760
REMARK  435  A    between atoms: CB_760  and  CG_761
REMARK  436  A    between atoms: CZ_766  and  OH_767
REMARK  437  A    between atoms: N_768  and  C_769
REMARK  438  A    between atoms: C_769  and  C_770
REMARK  439  A    between atoms: C_769  and  C_772
REMARK  440  A    between atoms: C_772  and  C_773
REMARK  441  A    between atoms: N_774  and  CA_775
REMARK  442  A    between atoms: CA_775  and  C_776
REMARK  443  A    between atoms: CA_775  and  CB_778
REMARK  444  A    between atoms: CB_778  and  CG_779
REMARK  445  A    between atoms: CG_779  and  CD_780
REMARK  446  A    between atoms: N_783  and  CA_784
REMARK  447  A    between atoms: CA_784  and  C_785
REMARK  448  A    between atoms: CA_784  and  CB_787
REMARK  449  A    between atoms: CB_787  and  CG_788
REMARK  450  A    between atoms: CG_788  and  CD2_789
REMARK  451  A    between atoms: CG_788  and  CD1_790
REMARK  452  A    between atoms: N_791  and  CA_792
REMARK  453  A    between atoms: CA_792  and  C_793
REMARK  454  A    between atoms: CA_792  and  CB_795
REMARK  455  A    between atoms: CB_795  and  CG_796
REMARK  456  A    between atoms: CG_796  and  CD_797
REMARK  457  A    between atoms: N_800  and  CA_801
REMARK  458  A    between atoms: CA_801  and  C_802
REMARK  459  A    between atoms: CA_801  and  CB_804
REMARK  460  A    between atoms: CB_804  and  CG_805
REMARK  461  A    between atoms: CG_805  and  CD_806
REMARK  462  A    between atoms: CD_806  and  CE_807
REMARK  463  A    between atoms: CE_807  and  NZ_808
REMARK  464  A    between atoms: N_809  and  CA_810
REMARK  465  A    between atoms: CA_810  and  C_811
REMARK  466  A    between atoms: CA_810  and  CB_813
REMARK  467  A    between atoms: CB_813  and  CG_814
REMARK  468  A    between atoms: CG_814  and  CD1_815
REMARK  469  A    between atoms: CG_814  and  CD2_816
REMARK  470  A    between atoms: N_817  and  CA_818
REMARK  471  A    between atoms: CA_818  and  C_819
REMARK  472  A    between atoms: CA_818  and  CB_821
REMARK  473  A    between atoms: CB_821  and  OG_822
REMARK  474  A    between atoms: N_823  and  CA_824
REMARK  475  A    between atoms: CA_824  and  C_825
REMARK  476  A    between atoms: CA_824  and  CB_827
REMARK  477  A    between atoms: CB_827  and  CG_828
REMARK  478  A    between atoms: CG_828  and  CD_829
REMARK  479  A    between atoms: CD_829  and  CE_830
REMARK  480  A    between atoms: CE_830  and  NZ_831
REMARK  481  A    between atoms: N_832  and  CA_833
REMARK  482  A    between atoms: CA_833  and  C_834
REMARK  483  A    between atoms: CA_833  and  CB_836
REMARK  484  A    between atoms: CB_836  and  CG_837
REMARK  485  A    between atoms: N_843  and  CA_844
REMARK  486  A    between atoms: CA_844  and  C_845
REMARK  487  A    between atoms: CA_844  and  CB_847
REMARK  488  A    between atoms: CB_847  and  CG_848
REMARK  489  A    between atoms: N_851  and  CA_852
REMARK  490  A    between atoms: CA_852  and  C_853
REMARK  491  A    between atoms: CA_852  and  CB_855
REMARK  492  A    between atoms: CB_855  and  CG_856
REMARK  493  A    between atoms: CG_856  and  CD_857
REMARK  494  A    between atoms: N_860  and  CA_861
REMARK  495  A    between atoms: CA_861  and  C_862
REMARK  496  A    between atoms: CA_861  and  CB_864
REMARK  497  A    between atoms: CB_864  and  CG_865
REMARK  498  A    between atoms: CG_865  and  CD_866
REMARK  499  A    between atoms: N_869  and  CA_870
REMARK  500  A    between atoms: CA_870  and  C_871
REMARK  501  A    between atoms: CA_870  and  CB_873
REMARK  502  A    between atoms: CB_873  and  CG_874
REMARK  503  A    between atoms: CG_874  and  CD_875
REMARK  504  A    between atoms: CD_875  and  NE_876
REMARK  505  A    between atoms: N_880  and  CA_881
REMARK  506  A    between atoms: CA_881  and  C_882
REMARK  507  A    between atoms: CA_881  and  CB_884
REMARK  508  A    between atoms: CB_884  and  OG1_885
REMARK  509  A    between atoms: CB_884  and  CG2_886
REMARK  510  A    between atoms: N_887  and  CA_888
REMARK  511  A    between atoms: CA_888  and  C_889
REMARK  512  A    between atoms: CA_888  and  CB_891
REMARK  513  A    between atoms: N_892  and  CA_893
REMARK  514  A    between atoms: CA_893  and  C_894
REMARK  515  A    between atoms: CA_893  and  CB_896
REMARK  516  A    between atoms: CB_896  and  OG1_897
REMARK  517  A    between atoms: CB_896  and  CG2_898
REMARK  518  A    between atoms: N_899  and  CA_900
REMARK  519  A    between atoms: CA_900  and  C_901
REMARK  520  A    between atoms: CA_900  and  CB_903
REMARK  521  A    between atoms: CB_903  and  CG_904
REMARK  522  A    between atoms: CZ_909  and  OH_910
REMARK  523  A    between atoms: N_911  and  CA_912
REMARK  524  A    between atoms: CA_912  and  C_913
REMARK  525  A    between atoms: CA_912  and  CB_915
REMARK  526  A    between atoms: CB_915  and  CG1_916
REMARK  527  A    between atoms: CB_915  and  CG2_917
REMARK  528  A    between atoms: CG1_916  and  CD1_918
REMARK  529  A    between atoms: N_919  and  CA_920
REMARK  530  A    between atoms: CA_920  and  C_921
REMARK  531  A    between atoms: CA_920  and  CB_923
REMARK  532  A    between atoms: CB_923  and  OG1_924
REMARK  533  A    between atoms: CB_923  and  CG2_925
REMARK  534  A    between atoms: N_926  and  CA_927
REMARK  535  A    between atoms: CA_927  and  C_928
REMARK  536  A    between atoms: CA_927  and  CB_930
REMARK  537  A    between atoms: CB_930  and  CG_931
REMARK  538  A    between atoms: CG_931  and  CD_932
REMARK  539  A    between atoms: N_935  and  CA_936
REMARK  540  A    between atoms: CA_936  and  C_937
REMARK  541  A    between atoms: CA_936  and  CB_939
REMARK  542  A    between atoms: CB_939  and  CG_940
REMARK  543  A    between atoms: CG_940  and  CD2_941
REMARK  544  A    between atoms: CG_940  and  CD1_942
REMARK  545  A    between atoms: N_943  and  CA_944
REMARK  546  A    between atoms: CA_944  and  C_945
REMARK  547  A    between atoms: CA_944  and  CB_947
REMARK  548  A    between atoms: N_948  and  CA_949
REMARK  549  A    between atoms: CA_949  and  C_950
REMARK  550  A    between atoms: CA_949  and  CB_952
REMARK  551  A    between atoms: CB_952  and  CG_953
REMARK  552  A    between atoms: N_956  and  CA_957
REMARK  553  A    between atoms: CA_957  and  C_958
REMARK  554  A    between atoms: CA_957  and  CB_960
REMARK  555  A    between atoms: N_961  and  CA_962
REMARK  556  A    between atoms: CA_962  and  C_963
REMARK  557  A    between atoms: CA_962  and  CB_965
REMARK  558  A    between atoms: CB_965  and  CG_966
REMARK  559  A    between atoms: CG_966  and  CD2_967
REMARK  560  A    between atoms: CG_966  and  CD1_968
REMARK  561  A    between atoms: N_969  and  CA_970
REMARK  562  A    between atoms: CA_970  and  C_971
REMARK  563  A    between atoms: CA_970  and  CB_973
REMARK  564  A    between atoms: CB_973  and  OG_974
REMARK  565  A    between atoms: N_975  and  CA_976
REMARK  566  A    between atoms: CA_976  and  C_977
REMARK  567  A    between atoms: CA_976  and  CB_979
REMARK  568  A    between atoms: CB_979  and  CG_980
REMARK  569  A    between atoms: CZ_985  and  OH_986
REMARK  570  A    between atoms: N_987  and  CA_988
REMARK  571  A    between atoms: CA_988  and  C_989
REMARK  572  A    between atoms: CA_988  and  CB_991
REMARK  573  A    between atoms: CB_991  and  SG_992
REMARK  574  A    between atoms: N_993  and  CA_994
REMARK  575  A    between atoms: CA_994  and  C_995
REMARK  576  A    between atoms: CA_994  and  CB_997
REMARK  577  A    between atoms: CB_997  and  CG_998
REMARK  578  A    between atoms: N_1003  and  C_1004
REMARK  579  A    between atoms: C_1004  and  C_1005
REMARK  580  A    between atoms: C_1004  and  C_1007
REMARK  581  A    between atoms: C_1007  and  O_1008
REMARK  582  A    between atoms: N_1009  and  C_1010
REMARK  583  A    between atoms: C_1010  and  C_1011
REMARK  584  A    between atoms: C_1010  and  C_1013
REMARK  585  A    between atoms: C_1013  and  C_1014
REMARK  586  A    between atoms: C_1014  and  C_1015
REMARK  587  A    between atoms: C_1015  and  C_1016
REMARK  588  A    between atoms: C_1016  and  N_1017
REMARK  589  A    between atoms: N_1018  and  C_1019
REMARK  590  A    between atoms: C_1020  and  C_1021
REMARK  591  A    between atoms: C_1020  and  C_1024
REMARK  592  A    between atoms: C_1023  and  C_1026
REMARK  593  A    between atoms: C_1025  and  C_1026
REMARK  594  A    between atoms: C_1027  and  N_1029
REMARK  595  A    between atoms: C_1028  and  N_1030
REMARK  596  A    between atoms: N_1037  and  C_1038
REMARK  597  A    between atoms: C_1038  and  C_1039
REMARK  598  A    between atoms: C_1038  and  C_1041
REMARK  599  A    between atoms: C_1041  and  C_1042
REMARK  600  A    between atoms: C_1041  and  C_1043
REMARK  601  A    between atoms: N_1044  and  C_1045
REMARK  602  A    between atoms: C_1045  and  C_1046
REMARK  603  A    between atoms: C_1045  and  C_1048
REMARK  604  A    between atoms: C_1048  and  C_1049
REMARK  605  A    between atoms: C_1048  and  C_1050
REMARK  606  A    between atoms: C_1049  and  C_1051
REMARK  607  A    between atoms: N_1052  and  C_1053
REMARK  608  A    between atoms: C_1053  and  C_1054
REMARK  609  A    between atoms: C_1053  and  C_1056
REMARK  610  A    between atoms: C_1056  and  C_1057
REMARK  611  A    between atoms: N_1062  and  C_1063
REMARK  612  A    between atoms: C_1063  and  C_1064
REMARK  613  A    between atoms: C_1063  and  C_1066
REMARK  614  A    between atoms: C_1066  and  C_1067
REMARK  615  A    between atoms: C_1067  and  C_1068
REMARK  616  A    between atoms: C_1068  and  N_1069
REMARK  617  A    between atoms: N_1073  and  C_1074
REMARK  618  A    between atoms: C_1074  and  C_1077
REMARK  619  A    between atoms: C_1077  and  C_1078
REMARK  620  A    between atoms: N_1081  and  C_1084
REMARK  621  A    between atoms: C_1083  and  C_1085
REMARK  622  A    between atoms: C_1085  and  C_1086
REMARK  623  A    between atoms: C_1085  and  O_1087
REMARK  624  A    between atoms: C_1085  and  N_1097
REMARK  625  A    between atoms: C_1089  and  C_1094
REMARK  626  A    between atoms: C_1090  and  C_1091
REMARK  627  A    between atoms: C_1093  and  C_1094
REMARK  628  A    between atoms: C_1098  and  C_1099
REMARK  629  A    between atoms: C_1098  and  C_1101
REMARK  630  A    between atoms: C_1101  and  C_1102
REMARK  631  A    between atoms: C_1102  and  C_1103
REMARK  632  A    between atoms: C_1103  and  C_1104
REMARK  633  A    between atoms: C_1104  and  N_1105
REMARK  634  A    between atoms: C_1107  and  C_1108
REMARK  635  A    between atoms: N_1113  and  CA_1114
REMARK  636  A    between atoms: CA_1114  and  C_1115
REMARK  637  A    between atoms: CA_1114  and  CB_1117
REMARK  638  A    between atoms: CB_1117  and  CG_1118
REMARK  639  A    between atoms: CG_1118  and  CD_1119
REMARK  640  A    between atoms: N_1122  and  CA_1123
REMARK  641  A    between atoms: CA_1123  and  C_1124
REMARK  642  A    between atoms: CA_1123  and  CB_1126
REMARK  643  A    between atoms: CB_1126  and  CG_1127
REMARK  644  A    between atoms: N_1130  and  CA_1131
REMARK  645  A    between atoms: CA_1131  and  C_1132
REMARK  646  A    between atoms: CA_1131  and  CB_1134
REMARK  647  A    between atoms: CB_1134  and  CG_1135
REMARK  648  A    between atoms: CG_1135  and  CD2_1136
REMARK  649  A    between atoms: CG_1135  and  CD1_1137
REMARK  650  A    between atoms: N_1138  and  CA_1139
REMARK  651  A    between atoms: CA_1139  and  C_1140
REMARK  652  A    between atoms: CA_1139  and  CB_1142
REMARK  653  A    between atoms: CB_1142  and  CG_1143
REMARK  654  A    between atoms: CG_1143  and  CD1_1144
REMARK  655  A    between atoms: CG_1143  and  CD2_1145
REMARK  656  A    between atoms: N_1146  and  CA_1147
REMARK  657  A    between atoms: CA_1147  and  C_1148
REMARK  658  A    between atoms: CA_1147  and  CB_1150
REMARK  659  A    between atoms: CB_1150  and  CG_1151
REMARK  660  A    between atoms: CG_1151  and  CD2_1152
REMARK  661  A    between atoms: CG_1151  and  CD1_1153
REMARK  662  A    between atoms: N_1154  and  CA_1155
REMARK  663  A    between atoms: CA_1155  and  C_1156
REMARK  664  A    between atoms: N_1158  and  CA_1159
REMARK  665  A    between atoms: CA_1159  and  C_1160
REMARK  666  A    between atoms: CA_1159  and  CB_1162
REMARK  667  A    between atoms: CB_1162  and  OG_1163
REMARK  668  A    between atoms: N_1164  and  CA_1165
REMARK  669  A    between atoms: CA_1165  and  C_1166
REMARK  670  A    between atoms: CA_1165  and  CB_1168
REMARK  671  A    between atoms: N_1169  and  CA_1170
REMARK  672  A    between atoms: CA_1170  and  C_1171
REMARK  673  A    between atoms: N_1173  and  CA_1174
REMARK  674  A    between atoms: CA_1174  and  C_1175
REMARK  675  A    between atoms: CA_1174  and  CB_1177
REMARK  676  A    between atoms: CB_1177  and  CG_1178
REMARK  677  A    between atoms: CG_1178  and  CD_1179
REMARK  678  A    between atoms: N_1182  and  CA_1183
REMARK  679  A    between atoms: CA_1183  and  C_1184
REMARK  680  A    between atoms: CA_1183  and  CB_1186
REMARK  681  A    between atoms: CB_1186  and  CG_1187
REMARK  682  A    between atoms: CG_1187  and  CD2_1188
REMARK  683  A    between atoms: CG_1187  and  CD1_1189
REMARK  684  A    between atoms: N_1190  and  CA_1191
REMARK  685  A    between atoms: CA_1191  and  C_1192
REMARK  686  A    between atoms: CA_1191  and  CB_1194
REMARK  687  A    between atoms: CB_1194  and  CG_1195
REMARK  688  A    between atoms: CG_1195  and  CD_1196
REMARK  689  A    between atoms: CD_1196  and  CE_1197
REMARK  690  A    between atoms: CE_1197  and  NZ_1198
REMARK  691  A    between atoms: N_1199  and  CA_1200
REMARK  692  A    between atoms: CA_1200  and  C_1201
REMARK  693  A    between atoms: CA_1200  and  CB_1203
REMARK  694  A    between atoms: CB_1203  and  CG1_1204
REMARK  695  A    between atoms: CB_1203  and  CG2_1205
REMARK  696  A    between atoms: CG1_1204  and  CD1_1206
REMARK  697  A    between atoms: N_1207  and  CA_1208
REMARK  698  A    between atoms: CA_1208  and  C_1209
REMARK  699  A    between atoms: CA_1208  and  CB_1211
REMARK  700  A    between atoms: N_1212  and  CA_1213
REMARK  701  A    between atoms: CA_1213  and  C_1214
REMARK  702  A    between atoms: CA_1213  and  CB_1216
REMARK  703  A    between atoms: CB_1216  and  CG_1217
REMARK  704  A    between atoms: N_1220  and  CA_1221
REMARK  705  A    between atoms: CA_1221  and  C_1222
REMARK  706  A    between atoms: CA_1221  and  CB_1224
REMARK  707  A    between atoms: CB_1224  and  CG_1225
REMARK  708  A    between atoms: N_1231  and  CA_1232
REMARK  709  A    between atoms: CA_1232  and  C_1233
REMARK  710  A    between atoms: N_1235  and  CA_1236
REMARK  711  A    between atoms: CA_1236  and  C_1237
REMARK  712  A    between atoms: CA_1236  and  CB_1239
REMARK  713  A    between atoms: CB_1239  and  CG_1240
REMARK  714  A    between atoms: N_1249  and  CA_1250
REMARK  715  A    between atoms: CA_1250  and  C_1251
REMARK  716  A    between atoms: CA_1250  and  CB_1253
REMARK  717  A    between atoms: CB_1253  and  OG_1254
REMARK  718  A    between atoms: N_1255  and  CA_1256
REMARK  719  A    between atoms: CA_1256  and  C_1257
REMARK  720  A    between atoms: CA_1256  and  CB_1259
REMARK  721  A    between atoms: CB_1259  and  CG2_1260
REMARK  722  A    between atoms: CB_1259  and  CG1_1261
REMARK  723  A    between atoms: N_1262  and  CA_1263
REMARK  724  A    between atoms: CA_1263  and  C_1264
REMARK  725  A    between atoms: CA_1263  and  CB_1266
REMARK  726  A    between atoms: CB_1266  and  CG_1267
REMARK  727  A    between atoms: N_1272  and  CA_1273
REMARK  728  A    between atoms: CA_1273  and  C_1274
REMARK  729  A    between atoms: CA_1273  and  CB_1276
REMARK  730  A    between atoms: CA_1278  and  C_1279
REMARK  731  A    between atoms: N_1284  and  CA_1285
REMARK  732  A    between atoms: CA_1285  and  C_1286
REMARK  733  A    between atoms: CA_1285  and  CB_1288
REMARK  734  A    between atoms: CB_1288  and  OG_1289
REMARK  735  A    between atoms: N_1290  and  CA_1291
REMARK  736  A    between atoms: CA_1291  and  C_1292
REMARK  737  A    between atoms: CA_1291  and  CB_1294
REMARK  738  A    between atoms: CB_1294  and  OG_1295
REMARK  739  A    between atoms: N_1296  and  C_1297
REMARK  740  A    between atoms: C_1297  and  C_1298
REMARK  741  A    between atoms: C_1297  and  C_1300
REMARK  742  A    between atoms: C_1300  and  C_1301
REMARK  743  A    between atoms: C_1301  and  C_1302
REMARK  744  A    between atoms: N_1303  and  CA_1304
REMARK  745  A    between atoms: CA_1304  and  C_1305
REMARK  746  A    between atoms: CA_1304  and  CB_1307
REMARK  747  A    between atoms: CB_1307  and  CG_1308
REMARK  748  A    between atoms: CG_1308  and  CD_1309
REMARK  749  A    between atoms: CD_1309  and  NE_1310
REMARK  750  A    between atoms: N_1314  and  CA_1315
REMARK  751  A    between atoms: CA_1315  and  C_1316
REMARK  752  A    between atoms: CA_1315  and  CB_1318
REMARK  753  A    between atoms: CB_1318  and  OG1_1319
REMARK  754  A    between atoms: CB_1318  and  CG2_1320
REMARK  755  A    between atoms: N_1321  and  C_1322
REMARK  756  A    between atoms: C_1322  and  C_1323
REMARK  757  A    between atoms: C_1322  and  C_1325
REMARK  758  A    between atoms: C_1325  and  C_1326
REMARK  759  A    between atoms: C_1326  and  C_1327
REMARK  760  A    between atoms: C_1326  and  C_1328
REMARK  761  A    between atoms: N_1329  and  C_1330
REMARK  762  A    between atoms: C_1330  and  C_1331
REMARK  763  A    between atoms: C_1330  and  C_1333
REMARK  764  A    between atoms: N_1334  and  C_1335
REMARK  765  A    between atoms: C_1335  and  C_1336
REMARK  766  A    between atoms: N_1338  and  C_1339
REMARK  767  A    between atoms: C_1339  and  C_1340
REMARK  768  A    between atoms: C_1339  and  C_1342
REMARK  769  A    between atoms: C_1342  and  O_1343
REMARK  770  A    between atoms: C_1342  and  C_1344
REMARK  771  A    between atoms: N_1345  and  C_1346
REMARK  772  A    between atoms: C_1346  and  C_1347
REMARK  773  A    between atoms: C_1346  and  C_1349
REMARK  774  A    between atoms: C_1349  and  C_1350
REMARK  775  A    between atoms: C_1350  and  C_1351
REMARK  776  A    between atoms: C_1350  and  C_1352
REMARK  777  A    between atoms: N_1353  and  C_1354
REMARK  778  A    between atoms: C_1354  and  C_1355
REMARK  779  A    between atoms: C_1354  and  C_1357
REMARK  780  A    between atoms: C_1357  and  C_1358
REMARK  781  A    between atoms: N_1361  and  C_1362
REMARK  782  A    between atoms: C_1362  and  C_1363
REMARK  783  A    between atoms: C_1362  and  C_1365
REMARK  784  A    between atoms: C_1365  and  C_1366
REMARK  785  A    between atoms: C_1371  and  O_1372
REMARK  786  A    between atoms: N_1373  and  C_1374
REMARK  787  A    between atoms: C_1374  and  C_1375
REMARK  788  A    between atoms: C_1374  and  C_1377
REMARK  789  A    between atoms: C_1377  and  C_1378
REMARK  790  A    between atoms: C_1378  and  C_1379
REMARK  791  A    between atoms: C_1378  and  C_1380
REMARK  792  A    between atoms: C_1382  and  C_1383
REMARK  793  A    between atoms: C_1389  and  C_1390
REMARK  794  A    between atoms: N_1395  and  C_1396
REMARK  795  A    between atoms: C_1396  and  C_1399
REMARK  796  A    between atoms: C_1399  and  C_1400
REMARK  797  A    between atoms: C_1400  and  C_1401
REMARK  798  A    between atoms: N_1405  and  C_1406
REMARK  799  A    between atoms: C_1407  and  C_1412
REMARK  800  A    between atoms: C_1408  and  O_1410
REMARK  801  A    between atoms: C_1409  and  O_1411
REMARK  802  A    between atoms: O_1410  and  O_1411
REMARK  803  A    between atoms: C_1412  and  C_1414
REMARK  804  A    between atoms: C_1413  and  C_1415
REMARK  805  A    between atoms: S_1416  and  C_1418
REMARK  806  A    between atoms: S_1417  and  C_1419
REMARK  807  A    between atoms: C_1418  and  C_1419
REMARK  808  A    between atoms: N_1420  and  CA_1421
REMARK  809  A    between atoms: CA_1421  and  C_1422
REMARK  810  A    between atoms: CA_1421  and  CB_1424
REMARK  811  A    between atoms: CB_1424  and  CG1_1425
REMARK  812  A    between atoms: CB_1424  and  CG2_1426
REMARK  813  A    between atoms: CG1_1425  and  CD1_1427
REMARK  814  A    between atoms: N_1428  and  CA_1429
REMARK  815  A    between atoms: CA_1429  and  C_1430
REMARK  816  A    between atoms: CA_1429  and  CB_1432
REMARK  817  A    between atoms: CB_1432  and  CG_1433
REMARK  818  A    between atoms: CG_1433  and  CD_1434
REMARK  819  A    between atoms: N_1437  and  CA_1438
REMARK  820  A    between atoms: CA_1438  and  C_1439
REMARK  821  A    between atoms: N_1441  and  CA_1442
REMARK  822  A    between atoms: CA_1442  and  C_1443
REMARK  823  A    between atoms: CA_1442  and  CB_1445
REMARK  824  A    between atoms: CB_1445  and  CG_1446
REMARK  825  A    between atoms: CG_1446  and  CD_1447
REMARK  826  A    between atoms: CD_1447  and  NE_1448
REMARK  827  A    between atoms: N_1452  and  C_1453
REMARK  828  A    between atoms: C_1453  and  C_1454
REMARK  829  A    between atoms: C_1453  and  C_1456
REMARK  830  A    between atoms: C_1456  and  C_1457
REMARK  831  A    between atoms: C_1457  and  S_1458
REMARK  832  A    between atoms: N_1459  and  CA_1460
REMARK  833  A    between atoms: CA_1460  and  C_1461
REMARK  834  A    between atoms: CA_1460  and  CB_1463
REMARK  835  A    between atoms: CB_1463  and  CG_1464
REMARK  836  A    between atoms: N_1469  and  CA_1470
REMARK  837  A    between atoms: CA_1470  and  C_1471
REMARK  838  A    between atoms: CA_1470  and  CB_1473
REMARK  839  A    between atoms: CB_1473  and  CG_1474
REMARK  840  A    between atoms: N_1477  and  CA_1478
REMARK  841  A    between atoms: CA_1478  and  C_1479
REMARK  842  A    between atoms: CA_1478  and  CB_1481
REMARK  843  A    between atoms: CB_1481  and  CG_1482
REMARK  844  A    between atoms: CG_1482  and  CD_1483
REMARK  845  A    between atoms: N_1486  and  CA_1487
REMARK  846  A    between atoms: CA_1487  and  C_1488
REMARK  847  A    between atoms: CA_1487  and  CB_1490
REMARK  848  A    between atoms: CB_1490  and  CG_1491
REMARK  849  A    between atoms: CG_1491  and  CD_1492
REMARK  850  A    between atoms: CD_1492  and  CE_1493
REMARK  851  A    between atoms: CE_1493  and  NZ_1494
REMARK  852  A    between atoms: N_1495  and  CA_1496
REMARK  853  A    between atoms: CA_1496  and  C_1497
REMARK  854  A    between atoms: CA_1496  and  CB_1499
REMARK  855  A    between atoms: CB_1499  and  CG2_1500
REMARK  856  A    between atoms: CB_1499  and  CG1_1501
REMARK  857  A    between atoms: N_1502  and  CA_1503
REMARK  858  A    between atoms: CA_1503  and  C_1504
REMARK  859  A    between atoms: CA_1503  and  CB_1506
REMARK  860  A    between atoms: CB_1506  and  CG_1507
REMARK  861  A    between atoms: N_1510  and  CA_1511
REMARK  862  A    between atoms: CA_1511  and  C_1512
REMARK  863  A    between atoms: CA_1511  and  CB_1514
REMARK  864  A    between atoms: CB_1514  and  CG_1515
REMARK  865  A    between atoms: CG_1515  and  CD2_1516
REMARK  866  A    between atoms: CG_1515  and  CD1_1517
REMARK  867  A    between atoms: N_1518  and  CA_1519
REMARK  868  A    between atoms: CA_1519  and  C_1520
REMARK  869  A    between atoms: CA_1519  and  CB_1522
REMARK  870  A    between atoms: CB_1522  and  CG_1523
REMARK  871  A    between atoms: N_1532  and  CA_1533
REMARK  872  A    between atoms: CA_1533  and  C_1534
REMARK  873  A    between atoms: CA_1533  and  CB_1536
REMARK  874  A    between atoms: CB_1536  and  OG_1537
REMARK  875  A    between atoms: N_1538  and  CA_1539
REMARK  876  A    between atoms: CA_1539  and  C_1540
REMARK  877  A    between atoms: CA_1539  and  CB_1542
REMARK  878  A    between atoms: CB_1542  and  CG_1543
REMARK  879  A    between atoms: CG_1543  and  CD2_1544
REMARK  880  A    between atoms: CG_1543  and  CD1_1545
REMARK  881  A    between atoms: N_1546  and  CA_1547
REMARK  882  A    between atoms: CA_1547  and  C_1548
REMARK  883  A    between atoms: N_1550  and  CA_1551
REMARK  884  A    between atoms: CA_1551  and  C_1552
REMARK  885  A    between atoms: CA_1551  and  CB_1554
REMARK  886  A    between atoms: CB_1554  and  CG2_1555
REMARK  887  A    between atoms: CB_1554  and  CG1_1556
REMARK  888  A    between atoms: N_1557  and  CA_1558
REMARK  889  A    between atoms: CA_1558  and  C_1559
REMARK  890  A    between atoms: CA_1558  and  CB_1561
REMARK  891  A    between atoms: CB_1561  and  CG_1562
REMARK  892  A    between atoms: CG_1562  and  CD1_1563
REMARK  893  A    between atoms: CG_1562  and  CD2_1564
REMARK  894  A    between atoms: N_1565  and  CA_1566
REMARK  895  A    between atoms: CA_1566  and  C_1567
REMARK  896  A    between atoms: CA_1566  and  CB_1569
REMARK  897  A    between atoms: CB_1569  and  SG_1570
REMARK  898  A    between atoms: N_1571  and  CA_1572
REMARK  899  A    between atoms: CA_1572  and  C_1573
REMARK  900  A    between atoms: CA_1572  and  CB_1575
REMARK  901  A    between atoms: CB_1575  and  CG_1576
REMARK  902  A    between atoms: CZ_1581  and  OH_1582
REMARK  903  A    between atoms: N_1583  and  CA_1584
REMARK  904  A    between atoms: CA_1584  and  C_1585
REMARK  905  A    between atoms: CA_1584  and  CB_1587
REMARK  906  A    between atoms: CB_1587  and  CG_1588
REMARK  907  A    between atoms: CG_1588  and  CD_1589
REMARK  908  A    between atoms: N_1592  and  CA_1593
REMARK  909  A    between atoms: CA_1593  and  C_1594
REMARK  910  A    between atoms: CA_1593  and  CB_1596
REMARK  911  A    between atoms: CB_1596  and  CG_1597
REMARK  912  A    between atoms: N_1603  and  CA_1604
REMARK  913  A    between atoms: CA_1604  and  C_1605
REMARK  914  A    between atoms: CA_1604  and  CB_1607
REMARK  915  A    between atoms: CB_1607  and  CG_1608
REMARK  916  A    between atoms: CG_1608  and  CD1_1609
REMARK  917  A    between atoms: CG_1608  and  CD2_1610
REMARK  918  A    between atoms: N_1611  and  CA_1612
REMARK  919  A    between atoms: CA_1612  and  C_1613
REMARK  920  A    between atoms: CA_1612  and  CB_1615
REMARK  921  A    between atoms: CB_1615  and  CG2_1616
REMARK  922  A    between atoms: CB_1615  and  CG1_1617
REMARK  923  A    between atoms: N_1618  and  CA_1619
REMARK  924  A    between atoms: CA_1619  and  C_1620
REMARK  925  A    between atoms: N_1622  and  C_1623
REMARK  926  A    between atoms: C_1623  and  C_1624
REMARK  927  A    between atoms: C_1623  and  C_1626
REMARK  928  A    between atoms: C_1626  and  C_1627
REMARK  929  A    between atoms: C_1627  and  C_1628
REMARK  930  A    between atoms: CA_1630  and  C_1631
REMARK  931  A    between atoms: CA_1637  and  C_1638
REMARK  932  A    between atoms: N_1643  and  CA_1644
REMARK  933  A    between atoms: CA_1644  and  C_1645
REMARK  934  A    between atoms: CA_1644  and  CB_1647
REMARK  935  A    between atoms: CB_1647  and  CG_1648
REMARK  936  A    between atoms: N_1654  and  CA_1655
REMARK  937  A    between atoms: CA_1655  and  C_1656
REMARK  938  A    between atoms: CA_1655  and  CB_1658
REMARK  939  A    between atoms: CB_1658  and  CG_1659
REMARK  940  A    between atoms: CG_1659  and  CD_1660
REMARK  941  A    between atoms: N_1663  and  CA_1664
REMARK  942  A    between atoms: CA_1664  and  C_1665
REMARK  943  A    between atoms: CA_1664  and  CB_1667
REMARK  944  A    between atoms: N_1668  and  CA_1669
REMARK  945  A    between atoms: CA_1669  and  C_1670
REMARK  946  A    between atoms: CA_1669  and  CB_1672
REMARK  947  A    between atoms: CB_1672  and  CG_1673
REMARK  948  A    between atoms: N_1676  and  CA_1677
REMARK  949  A    between atoms: CA_1677  and  C_1678
REMARK  950  A    between atoms: CA_1677  and  CB_1680
REMARK  951  A    between atoms: CB_1680  and  OG1_1681
REMARK  952  A    between atoms: CB_1680  and  CG2_1682
REMARK  953  A    between atoms: N_1683  and  CA_1684
REMARK  954  A    between atoms: CA_1684  and  C_1685
REMARK  955  A    between atoms: CA_1684  and  CB_1687
REMARK  956  A    between atoms: CB_1687  and  CG_1688
REMARK  957  A    between atoms: CZ_1693  and  OH_1694
REMARK  958  A    between atoms: N_1695  and  CA_1696
REMARK  959  A    between atoms: CA_1696  and  C_1697
REMARK  960  A    between atoms: CA_1696  and  CB_1699
REMARK  961  A    between atoms: CB_1699  and  CG_1700
REMARK  962  A    between atoms: CG_1700  and  CD_1701
REMARK  963  A    between atoms: N_1704  and  CA_1705
REMARK  964  A    between atoms: CA_1705  and  C_1706
REMARK  965  A    between atoms: CA_1705  and  CB_1708
REMARK  966  A    between atoms: CB_1708  and  CG_1709
REMARK  967  A    between atoms: CG_1709  and  CD_1710
REMARK  968  A    between atoms: N_1713  and  CA_1714
REMARK  969  A    between atoms: CA_1714  and  C_1715
REMARK  970  A    between atoms: CA_1714  and  CB_1717
REMARK  971  A    between atoms: CB_1717  and  OG1_1718
REMARK  972  A    between atoms: CB_1717  and  CG2_1719
REMARK  973  A    between atoms: N_1720  and  CA_1721
REMARK  974  A    between atoms: CA_1721  and  C_1722
REMARK  975  A    between atoms: CA_1721  and  CB_1724
REMARK  976  A    between atoms: CB_1724  and  CG_1725
REMARK  977  A    between atoms: CZ_1730  and  OH_1731
REMARK  978  A    between atoms: N_1732  and  CA_1733
REMARK  979  A    between atoms: CA_1733  and  C_1734
REMARK  980  A    between atoms: CA_1733  and  CB_1736
REMARK  981  A    between atoms: CB_1736  and  SG_1737
REMARK  982  A    between atoms: N_1738  and  C_1739
REMARK  983  A    between atoms: C_1739  and  C_1740
REMARK  984  A    between atoms: C_1739  and  C_1742
REMARK  985  A    between atoms: C_1742  and  C_1743
REMARK  986  A    between atoms: C_1743  and  C_1744
REMARK  987  A    between atoms: C_1744  and  N_1745
REMARK  988  A    between atoms: N_1746  and  CA_1747
REMARK  989  A    between atoms: CA_1747  and  C_1748
REMARK  990  A    between atoms: CA_1747  and  CB_1750
REMARK  991  A    between atoms: CB_1750  and  CG1_1751
REMARK  992  A    between atoms: CB_1750  and  CG2_1752
REMARK  993  A    between atoms: CG1_1751  and  CD1_1753
REMARK  994  A    between atoms: N_1754  and  C_1755
REMARK  995  A    between atoms: C_1755  and  C_1756
REMARK  996  A    between atoms: C_1755  and  C_1758
REMARK  997  A    between atoms: C_1758  and  O_1759
REMARK  998  A    between atoms: N_1760  and  C_1761
REMARK  999  A    between atoms: C_1761  and  C_1762
REMARK  1000  A    between atoms: C_1761  and  C_1764
REMARK  1001  A    between atoms: C_1764  and  C_1765
REMARK  1002  A    between atoms: C_1765  and  C_1766
REMARK  1003  A    between atoms: C_1766  and  N_1767
REMARK  1004  A    between atoms: N_1771  and  C_1772
REMARK  1005  A    between atoms: C_1772  and  C_1773
REMARK  1006  A    between atoms: C_1772  and  C_1775
REMARK  1007  A    between atoms: C_1775  and  C_1776
REMARK  1008  A    between atoms: C_1775  and  C_1777
REMARK  1009  A    between atoms: N_1778  and  C_1779
REMARK  1010  A    between atoms: C_1779  and  C_1780
REMARK  1011  A    between atoms: C_1779  and  C_1782
REMARK  1012  A    between atoms: C_1782  and  C_1783
REMARK  1013  A    between atoms: C_1783  and  C_1784
REMARK  1014  A    between atoms: N_1787  and  C_1788
REMARK  1015  A    between atoms: C_1788  and  C_1789
REMARK  1016  A    between atoms: C_1788  and  C_1791
REMARK  1017  A    between atoms: C_1791  and  C_1792
REMARK  1018  A    between atoms: N_1798  and  C_1799
REMARK  1019  A    between atoms: C_1799  and  C_1800
REMARK  1020  A    between atoms: C_1799  and  C_1802
REMARK  1021  A    between atoms: C_1802  and  O_1803
REMARK  1022  A    between atoms: C_1802  and  C_1804
REMARK  1023  A    between atoms: N_1805  and  C_1806
REMARK  1024  A    between atoms: C_1806  and  C_1807
REMARK  1025  A    between atoms: C_1806  and  C_1809
REMARK  1026  A    between atoms: C_1809  and  C_1810
REMARK  1027  A    between atoms: C_1817  and  C_1818
REMARK  1028  A    between atoms: N_1823  and  C_1824
REMARK  1029  A    between atoms: C_1824  and  C_1825
REMARK  1030  A    between atoms: C_1824  and  C_1827
REMARK  1031  A    between atoms: C_1827  and  C_1828
REMARK  1032  A    between atoms: N_1831  and  C_1832
REMARK  1033  A    between atoms: C_1832  and  C_1833
REMARK  1034  A    between atoms: C_1832  and  C_1835
REMARK  1035  A    between atoms: C_1835  and  C_1836
REMARK  1036  A    between atoms: N_1842  and  C_1843
REMARK  1037  A    between atoms: C_1843  and  C_1844
REMARK  1038  A    between atoms: C_1843  and  C_1846
REMARK  1039  A    between atoms: C_1846  and  C_1847
REMARK  1040  A    between atoms: C_1846  and  C_1848
REMARK  1041  A    between atoms: N_1849  and  C_1850
REMARK  1042  A    between atoms: C_1850  and  C_1851
REMARK  1043  A    between atoms: C_1850  and  C_1853
REMARK  1044  A    between atoms: C_1853  and  O_1854
REMARK  1045  A    between atoms: C_1853  and  C_1855
REMARK  1046  A    between atoms: N_1856  and  C_1857
REMARK  1047  A    between atoms: C_1858  and  C_1859
REMARK  1048  A    between atoms: C_1858  and  C_1861
REMARK  1049  A    between atoms: C_1862  and  C_1863
REMARK  1050  A    between atoms: C_1862  and  C_1864
REMARK  1051  A    between atoms: C_1863  and  C_1865
REMARK  1052  A    between atoms: N_1871  and  C_1872
REMARK  1053  A    between atoms: C_1872  and  C_1873
REMARK  1054  A    between atoms: N_1875  and  CA_1876
REMARK  1055  A    between atoms: CA_1876  and  C_1877
REMARK  1056  A    between atoms: CA_1876  and  CB_1879
REMARK  1057  A    between atoms: N_1880  and  CA_1881
REMARK  1058  A    between atoms: CA_1881  and  C_1882
REMARK  1059  A    between atoms: CA_1881  and  CB_1884
REMARK  1060  A    between atoms: CB_1884  and  CG_1885
REMARK  1061  A    between atoms: CG_1885  and  CD_1886
REMARK  1062  A    between atoms: CD_1886  and  NE_1887
REMARK  1063  A    between atoms: N_1891  and  CA_1892
REMARK  1064  A    between atoms: CA_1892  and  C_1893
REMARK  1065  A    between atoms: CA_1892  and  CB_1895
REMARK  1066  A    between atoms: CB_1895  and  CG_1896
REMARK  1067  A    between atoms: N_1899  and  CA_1900
REMARK  1068  A    between atoms: CA_1900  and  C_1901
REMARK  1069  A    between atoms: CA_1900  and  CB_1903
REMARK  1070  A    between atoms: CB_1903  and  CG_1904
REMARK  1071  A    between atoms: CG_1904  and  CD1_1905
REMARK  1072  A    between atoms: CG_1904  and  CD2_1906
REMARK  1073  A    between atoms: N_1907  and  CA_1908
REMARK  1074  A    between atoms: CA_1908  and  C_1909
REMARK  1075  A    between atoms: CA_1908  and  CB_1911
REMARK  1076  A    between atoms: CB_1911  and  CG1_1912
REMARK  1077  A    between atoms: CB_1911  and  CG2_1913
REMARK  1078  A    between atoms: CG1_1912  and  CD1_1914
REMARK  1079  A    between atoms: N_1915  and  CA_1916
REMARK  1080  A    between atoms: CA_1916  and  C_1917
REMARK  1081  A    between atoms: CA_1916  and  CB_1919
REMARK  1082  A    between atoms: CB_1919  and  OG_1920
REMARK  1083  A    between atoms: N_1921  and  CA_1922
REMARK  1084  A    between atoms: CA_1922  and  C_1923
REMARK  1085  A    between atoms: CA_1922  and  CB_1925
REMARK  1086  A    between atoms: CB_1925  and  CG_1926
REMARK  1087  A    between atoms: CG_1926  and  CD_1927
REMARK  1088  A    between atoms: CD_1927  and  NE_1928
REMARK  1089  A    between atoms: N_1932  and  CA_1933
REMARK  1090  A    between atoms: CA_1933  and  C_1934
REMARK  1091  A    between atoms: CA_1933  and  CB_1936
REMARK  1092  A    between atoms: CB_1936  and  CG_1937
REMARK  1093  A    between atoms: CG_1937  and  CD2_1938
REMARK  1094  A    between atoms: CG_1937  and  CD1_1939
REMARK  1095  A    between atoms: N_1940  and  CA_1941
REMARK  1096  A    between atoms: CA_1941  and  C_1942
REMARK  1097  A    between atoms: CA_1941  and  CB_1944
REMARK  1098  A    between atoms: CB_1944  and  CG_1945
REMARK  1099  A    between atoms: CG_1945  and  CD2_1946
REMARK  1100  A    between atoms: CG_1945  and  CD1_1947
REMARK  1101  A    between atoms: N_1948  and  CA_1949
REMARK  1102  A    between atoms: CA_1949  and  C_1950
REMARK  1103  A    between atoms: CA_1949  and  CB_1952
REMARK  1104  A    between atoms: CB_1952  and  CG_1953
REMARK  1105  A    between atoms: CG_1953  and  CD_1954
REMARK  1106  A    between atoms: CD_1954  and  CE_1955
REMARK  1107  A    between atoms: CE_1955  and  NZ_1956
REMARK  1108  A    between atoms: N_1957  and  CA_1958
REMARK  1109  A    between atoms: CA_1958  and  C_1959
REMARK  1110  A    between atoms: CA_1958  and  CB_1961
REMARK  1111  A    between atoms: CB_1961  and  CG_1962
REMARK  1112  A    between atoms: N_1967  and  CA_1968
REMARK  1113  A    between atoms: CA_1968  and  C_1969
REMARK  1114  A    between atoms: CA_1968  and  CB_1971
REMARK  1115  A    between atoms: CB_1971  and  CG_1972
REMARK  1116  A    between atoms: CA_1976  and  C_1977
REMARK  1117  A    between atoms: N_1982  and  C_1983
REMARK  1118  A    between atoms: C_1983  and  C_1984
REMARK  1119  A    between atoms: C_1983  and  C_1986
REMARK  1120  A    between atoms: C_1986  and  O_1987
REMARK  1121  A    between atoms: N_1988  and  C_1989
REMARK  1122  A    between atoms: C_1989  and  C_1990
REMARK  1123  A    between atoms: C_1989  and  C_1992
REMARK  1124  A    between atoms: C_1992  and  C_1993
REMARK  1125  A    between atoms: C_1993  and  C_1994
REMARK  1126  A    between atoms: N_1997  and  C_1998
REMARK  1127  A    between atoms: C_1998  and  C_1999
REMARK  1128  A    between atoms: C_1998  and  C_2001
REMARK  1129  A    between atoms: C_2001  and  C_2002
REMARK  1130  A    between atoms: C_2002  and  C_2003
REMARK  1131  A    between atoms: C_2003  and  N_2004
REMARK  1132  A    between atoms: C_2009  and  C_2010
REMARK  1133  A    between atoms: N_2015  and  C_2017
REMARK  1134  A    between atoms: C_2016  and  C_2018
REMARK  1135  A    between atoms: C_2016  and  C_2021
REMARK  1136  A    between atoms: C_2021  and  C_2022
REMARK  1137  A    between atoms: C_2022  and  C_2023
REMARK  1138  A    between atoms: C_2023  and  S_2024
REMARK  1139  A    between atoms: C_2023  and  S_2025
REMARK  1140  A    between atoms: S_2024  and  C_2026
REMARK  1141  A    between atoms: S_2025  and  C_2027
REMARK  1142  A    between atoms: N_2028  and  CA_2029
REMARK  1143  A    between atoms: CA_2029  and  C_2030
REMARK  1144  A    between atoms: CA_2029  and  CB_2032
REMARK  1145  A    between atoms: CB_2032  and  CG_2033
REMARK  1146  A    between atoms: CG_2033  and  CD1_2034
REMARK  1147  A    between atoms: CG_2033  and  CD2_2035
REMARK  1148  A    between atoms: N_2036  and  CA_2037
REMARK  1149  A    between atoms: CA_2037  and  C_2038
REMARK  1150  A    between atoms: CA_2037  and  CB_2040
REMARK  1151  A    between atoms: N_2041  and  CA_2042
REMARK  1152  A    between atoms: CA_2042  and  C_2043
REMARK  1153  A    between atoms: CA_2042  and  CB_2045
REMARK  1154  A    between atoms: CB_2045  and  CG_2046
REMARK  1155  A    between atoms: CG_2046  and  CD_2047
REMARK  1156  A    between atoms: N_2050  and  CA_2051
REMARK  1157  A    between atoms: CA_2051  and  C_2052
REMARK  1158  A    between atoms: CA_2051  and  CB_2054
REMARK  1159  A    between atoms: CB_2054  and  CG2_2055
REMARK  1160  A    between atoms: CB_2054  and  CG1_2056
REMARK  1161  A    between atoms: N_2057  and  CA_2058
REMARK  1162  A    between atoms: CA_2058  and  C_2059
REMARK  1163  A    between atoms: CA_2058  and  CB_2061
REMARK  1164  A    between atoms: CB_2061  and  CG_2062
REMARK  1165  A    between atoms: CG_2062  and  CD1_2063
REMARK  1166  A    between atoms: CG_2062  and  CD2_2064
REMARK  1167  A    between atoms: N_2065  and  CA_2066
REMARK  1168  A    between atoms: CA_2066  and  C_2067
REMARK  1169  A    between atoms: CA_2066  and  CB_2069
REMARK  1170  A    between atoms: CB_2069  and  CG_2070
REMARK  1171  A    between atoms: CG_2070  and  CD_2071
REMARK  1172  A    between atoms: N_2074  and  CA_2075
REMARK  1173  A    between atoms: CA_2075  and  C_2076
REMARK  1174  A    between atoms: CA_2075  and  CB_2078
REMARK  1175  A    between atoms: CB_2078  and  CG_2079
REMARK  1176  A    between atoms: CA_2085  and  C_2086
REMARK  1177  A    between atoms: N_2091  and  CA_2092
REMARK  1178  A    between atoms: CA_2092  and  C_2093
REMARK  1179  A    between atoms: CA_2092  and  CB_2095
REMARK  1180  A    between atoms: CB_2095  and  CG_2096
REMARK  1181  A    between atoms: N_2105  and  CA_2106
REMARK  1182  A    between atoms: CA_2106  and  C_2107
REMARK  1183  A    between atoms: CA_2106  and  CB_2109
REMARK  1184  A    between atoms: CB_2109  and  CG1_2110
REMARK  1185  A    between atoms: CB_2109  and  CG2_2111
REMARK  1186  A    between atoms: CG1_2110  and  CD1_2112
REMARK  1187  A    between atoms: N_2113  and  CA_2114
REMARK  1188  A    between atoms: CA_2114  and  C_2115
REMARK  1189  A    between atoms: CA_2114  and  CB_2117
REMARK  1190  A    between atoms: CB_2117  and  OG1_2118
REMARK  1191  A    between atoms: CB_2117  and  CG2_2119
REMARK  1192  A    between atoms: N_2120  and  CA_2121
REMARK  1193  A    between atoms: CA_2121  and  C_2122
REMARK  1194  A    between atoms: CA_2121  and  CB_2124
REMARK  1195  A    between atoms: N_2125  and  CA_2126
REMARK  1196  A    between atoms: CA_2126  and  C_2127
REMARK  1197  A    between atoms: CA_2126  and  CB_2129
REMARK  1198  A    between atoms: CB_2129  and  CG_2130
REMARK  1199  A    between atoms: N_2133  and  CA_2134
REMARK  1200  A    between atoms: CA_2134  and  C_2135
REMARK  1201  A    between atoms: CA_2134  and  CB_2137
REMARK  1202  A    between atoms: CB_2137  and  OG_2138
REMARK  1203  A    between atoms: N_2139  and  CA_2140
REMARK  1204  A    between atoms: CA_2140  and  C_2141
REMARK  1205  A    between atoms: CA_2140  and  CB_2143
REMARK  1206  A    between atoms: CB_2143  and  OG_2144
REMARK  1207  A    between atoms: N_2145  and  C_2146
REMARK  1208  A    between atoms: C_2146  and  C_2147
REMARK  1209  A    between atoms: C_2146  and  C_2149
REMARK  1210  A    between atoms: C_2149  and  C_2150
REMARK  1211  A    between atoms: N_2151  and  CA_2152
REMARK  1212  A    between atoms: CA_2152  and  C_2153
REMARK  1213  A    between atoms: CA_2152  and  CB_2155
REMARK  1214  A    between atoms: CB_2155  and  OG_2156
REMARK  1215  A    between atoms: N_2157  and  CA_2158
REMARK  1216  A    between atoms: CA_2158  and  C_2159
REMARK  1217  A    between atoms: CA_2158  and  CB_2161
REMARK  1218  A    between atoms: CB_2161  and  CG_2162
REMARK  1219  A    between atoms: CG_2162  and  CD_2163
REMARK  1220  A    between atoms: CA_2167  and  C_2168
REMARK  1221  A    between atoms: CA_2174  and  C_2175
REMARK  1222  A    between atoms: N_2180  and  CA_2181
REMARK  1223  A    between atoms: CA_2181  and  C_2182
REMARK  1224  A    between atoms: CA_2181  and  CB_2184
REMARK  1225  A    between atoms: CB_2184  and  OG_2185
REMARK  1226  A    between atoms: N_2186  and  CA_2187
REMARK  1227  A    between atoms: CA_2187  and  C_2188
REMARK  1228  A    between atoms: CA_2187  and  CB_2190
REMARK  1229  A    between atoms: CB_2190  and  CG_2191
REMARK  1230  A    between atoms: N_2200  and  CA_2201
REMARK  1231  A    between atoms: CA_2201  and  C_2202
REMARK  1232  A    between atoms: CA_2201  and  CB_2204
REMARK  1233  A    between atoms: CB_2204  and  CG2_2205
REMARK  1234  A    between atoms: CB_2204  and  CG1_2206
REMARK  1235  A    between atoms: N_2207  and  CA_2208
REMARK  1236  A    between atoms: CA_2208  and  C_2209
REMARK  1237  A    between atoms: CA_2208  and  CB_2211
REMARK  1238  A    between atoms: CB_2211  and  OG1_2212
REMARK  1239  A    between atoms: CB_2211  and  CG2_2213
REMARK  1240  A    between atoms: N_2214  and  CA_2215
REMARK  1241  A    between atoms: CA_2215  and  C_2216
REMARK  1242  A    between atoms: CA_2215  and  CB_2218
REMARK  1243  A    between atoms: CB_2218  and  CG_2219
REMARK  1244  A    between atoms: CG_2219  and  CD_2220
REMARK  1245  A    between atoms: N_2223  and  CA_2224
REMARK  1246  A    between atoms: CA_2224  and  C_2225
REMARK  1247  A    between atoms: CA_2224  and  CB_2227
REMARK  1248  A    between atoms: CB_2227  and  CG_2228
REMARK  1249  A    between atoms: CG_2228  and  SD_2229
REMARK  1250  A    between atoms: SD_2229  and  CE_2230
REMARK  1251  A    between atoms: N_2231  and  CA_2232
REMARK  1252  A    between atoms: CA_2232  and  C_2233
REMARK  1253  A    between atoms: CA_2232  and  CB_2235
REMARK  1254  A    between atoms: CB_2235  and  CG_2236
REMARK  1255  A    between atoms: CG_2236  and  CD1_2237
REMARK  1256  A    between atoms: CG_2236  and  CD2_2238
REMARK  1257  A    between atoms: N_2239  and  CA_2240
REMARK  1258  A    between atoms: CA_2240  and  C_2241
REMARK  1259  A    between atoms: CA_2240  and  CB_2243
REMARK  1260  A    between atoms: CB_2243  and  CG_2244
REMARK  1261  A    between atoms: CG_2244  and  CD1_2245
REMARK  1262  A    between atoms: CG_2244  and  CD2_2246
REMARK  1263  A    between atoms: N_2247  and  CA_2248
REMARK  1264  A    between atoms: CA_2248  and  C_2249
REMARK  1265  A    between atoms: CA_2248  and  CB_2251
REMARK  1266  A    between atoms: CB_2251  and  CG_2252
REMARK  1267  A    between atoms: CG_2252  and  CD_2253
REMARK  1268  A    between atoms: N_2256  and  CA_2257
REMARK  1269  A    between atoms: CA_2257  and  C_2258
REMARK  1270  A    between atoms: CA_2257  and  CB_2260
REMARK  1271  A    between atoms: CB_2260  and  CG_2261
REMARK  1272  A    between atoms: CG_2261  and  CD_2262
REMARK  1273  A    between atoms: CD_2262  and  CE_2263
REMARK  1274  A    between atoms: CE_2263  and  NZ_2264
REMARK  1275  A    between atoms: N_2265  and  C_2266
REMARK  1276  A    between atoms: C_2266  and  C_2267
REMARK  1277  A    between atoms: C_2266  and  C_2269
REMARK  1278  A    between atoms: C_2269  and  C_2270
REMARK  1279  A    between atoms: N_2271  and  CA_2272
REMARK  1280  A    between atoms: CA_2272  and  C_2273
REMARK  1281  A    between atoms: CA_2272  and  CB_2275
REMARK  1282  A    between atoms: CB_2275  and  CG_2276
REMARK  1283  A    between atoms: CG_2276  and  CD2_2277
REMARK  1284  A    between atoms: CG_2276  and  CD1_2278
REMARK  1285  A    between atoms: N_2279  and  CA_2280
REMARK  1286  A    between atoms: CA_2280  and  C_2281
REMARK  1287  A    between atoms: CA_2280  and  CB_2283
REMARK  1288  A    between atoms: CB_2283  and  CG_2284
REMARK  1289  A    between atoms: N_2293  and  CA_2294
REMARK  1290  A    between atoms: CA_2294  and  C_2295
REMARK                            x       y       z     vdW  Elec       q    Type
REMARK                         _______ _______ _______ _____ _____    ______ ____
ROOT
ATOM      1  C   UNL     9     -54.682  59.032  17.532  0.00  0.00    +0.107 C 
ATOM      2  O   UNL     9     -54.129  59.912  18.232  0.00  0.00    -0.553 OA
ATOM      3  O   UNL     9     -55.746  59.235  16.907  0.00  0.00    -0.553 OA
ENDROOT
TORSDOF 0
REMARK  Name = /Users/wangyang/Desktop/Breast_cancer_brain_metastasis/wang_Gene/AIDD/15_Protein_ligand_docking/data_7ztl/protein.pdb
REMARK  1290 active torsions:
REMARK  status: ('A' for Active; 'I' for Inactive)
REMARK    1  A    between atoms: N_1  and  CA_2
REMARK    2  A    between atoms: CA_2  and  C_3
REMARK    3  A    between atoms: N_5  and  CA_6
REMARK    4  A    between atoms: CA_6  and  C_7
REMARK    5  A    between atoms: CA_6  and  CB_9
REMARK    6  A    between atoms: N_10  and  CA_11
REMARK    7  A    between atoms: CA_11  and  C_12
REMARK    8  A    between atoms: CA_11  and  CB_14
REMARK    9  A    between atoms: CB_14  and  CG_15
REMARK   10  A    between atoms: N_24  and  CA_25
REMARK   11  A    between atoms: CA_25  and  C_26
REMARK   12  A    between atoms: CA_25  and  CB_28
REMARK   13  A    between atoms: N_29  and  CA_30
REMARK   14  A    between atoms: CA_30  and  C_31
REMARK   15  A    between atoms: CA_30  and  CB_33
REMARK   16  A    between atoms: CB_33  and  CG_34
REMARK   17  A    between atoms: CG_34  and  CD1_35
REMARK   18  A    between atoms: CG_34  and  CD2_36
REMARK   19  A    between atoms: N_37  and  CA_38
REMARK   20  A    between atoms: CA_38  and  C_39
REMARK   21  A    between atoms: CA_38  and  CB_41
REMARK   22  A    between atoms: CB_41  and  CG_42
REMARK   23  A    between atoms: CG_42  and  CD_43
REMARK   24  A    between atoms: N_46  and  CA_47
REMARK   25  A    between atoms: CA_47  and  C_48
REMARK   26  A    between atoms: CA_47  and  CB_50
REMARK   27  A    between atoms: CB_50  and  CG_51
REMARK   28  A    between atoms: N_54  and  CA_55
REMARK   29  A    between atoms: CA_55  and  C_56
REMARK   30  A    between atoms: CA_55  and  CB_58
REMARK   31  A    between atoms: CB_58  and  CG_59
REMARK   32  A    between atoms: N_65  and  CA_66
REMARK   33  A    between atoms: CA_66  and  C_67
REMARK   34  A    between atoms: CA_66  and  CB_69
REMARK   35  A    between atoms: CB_69  and  CG_70
REMARK   36  A    between atoms: CG_70  and  CD_71
REMARK   37  A    between atoms: N_74  and  CA_75
REMARK   38  A    between atoms: CA_75  and  C_76
REMARK   39  A    between atoms: CA_75  and  CB_78
REMARK   40  A    between atoms: CB_78  and  CG1_79
REMARK   41  A    between atoms: CB_78  and  CG2_80
REMARK   42  A    between atoms: CG1_79  and  CD1_81
REMARK   43  A    between atoms: N_82  and  CA_83
REMARK   44  A    between atoms: CA_83  and  C_84
REMARK   45  A    between atoms: N_86  and  CA_87
REMARK   46  A    between atoms: CA_87  and  C_88
REMARK   47  A    between atoms: CA_87  and  CB_90
REMARK   48  A    between atoms: CB_90  and  CG_91
REMARK   49  A    between atoms: CG_91  and  CD_92
REMARK   50  A    between atoms: CD_92  and  NE_93
REMARK   51  A    between atoms: CA_98  and  C_99
REMARK   52  A    between atoms: N_104  and  CA_105
REMARK   53  A    between atoms: CA_105  and  C_106
REMARK   54  A    between atoms: CA_105  and  CB_108
REMARK   55  A    between atoms: CB_108  and  CG_109
REMARK   56  A    between atoms: CG_109  and  CD1_110
REMARK   57  A    between atoms: CG_109  and  CD2_111
REMARK   58  A    between atoms: N_112  and  CA_113
REMARK   59  A    between atoms: CA_113  and  C_114
REMARK   60  A    between atoms: N_116  and  C_117
REMARK   61  A    between atoms: C_117  and  C_118
REMARK   62  A    between atoms: C_117  and  C_120
REMARK   63  A    between atoms: C_120  and  C_121
REMARK   64  A    between atoms: C_121  and  C_122
REMARK   65  A    between atoms: N_123  and  CA_124
REMARK   66  A    between atoms: CA_124  and  C_125
REMARK   67  A    between atoms: N_127  and  CA_128
REMARK   68  A    between atoms: CA_128  and  C_129
REMARK   69  A    between atoms: CA_128  and  CB_131
REMARK   70  A    between atoms: CB_131  and  CG_132
REMARK   71  A    between atoms: CG_132  and  CD_133
REMARK   72  A    between atoms: CD_133  and  CE_134
REMARK   73  A    between atoms: CE_134  and  NZ_135
REMARK   74  A    between atoms: N_136  and  CA_137
REMARK   75  A    between atoms: CA_137  and  C_138
REMARK   76  A    between atoms: CA_137  and  CB_140
REMARK   77  A    between atoms: CB_140  and  CG_141
REMARK   78  A    between atoms: N_147  and  CA_148
REMARK   79  A    between atoms: CA_148  and  C_149
REMARK   80  A    between atoms: N_151  and  CA_152
REMARK   81  A    between atoms: CA_152  and  C_153
REMARK   82  A    between atoms: CA_152  and  CB_155
REMARK   83  A    between atoms: CB_155  and  CG_156
REMARK   84  A    between atoms: N_159  and  CA_160
REMARK   85  A    between atoms: CA_160  and  C_161
REMARK   86  A    between atoms: CA_160  and  CB_163
REMARK   87  A    between atoms: CB_163  and  CG1_164
REMARK   88  A    between atoms: CB_163  and  CG2_165
REMARK   89  A    between atoms: N_166  and  CA_167
REMARK   90  A    between atoms: CA_167  and  C_168
REMARK   91  A    between atoms: CA_167  and  CB_170
REMARK   92  A    between atoms: CB_170  and  CG_171
REMARK   93  A    between atoms: CZ_176  and  OH_177
REMARK   94  A    between atoms: N_178  and  CA_179
REMARK   95  A    between atoms: CA_179  and  C_180
REMARK   96  A    between atoms: CA_179  and  CB_182
REMARK   97  A    between atoms: CB_182  and  CG_183
REMARK   98  A    between atoms: CG_183  and  CD1_184
REMARK   99  A    between atoms: CG_183  and  CD2_185
REMARK  100  A    between atoms: N_186  and  CA_187
REMARK  101  A    between atoms: CA_187  and  C_188
REMARK  102  A    between atoms: CA_187  and  CB_190
REMARK  103  A    between atoms: N_191  and  CA_192
REMARK  104  A    between atoms: CA_192  and  C_193
REMARK  105  A    between atoms: CA_192  and  CB_195
REMARK  106  A    between atoms: CB_195  and  CG_196
REMARK  107  A    between atoms: CG_196  and  CD_197
REMARK  108  A    between atoms: CD_197  and  NE_198
REMARK  109  A    between atoms: N_202  and  CA_203
REMARK  110  A    between atoms: CA_203  and  C_204
REMARK  111  A    between atoms: CA_203  and  CB_206
REMARK  112  A    between atoms: CB_206  and  CG_207
REMARK  113  A    between atoms: CG_207  and  CD_208
REMARK  114  A    between atoms: N_211  and  CA_212
REMARK  115  A    between atoms: CA_212  and  C_213
REMARK  116  A    between atoms: CA_212  and  CB_215
REMARK  117  A    between atoms: CB_215  and  CG_216
REMARK  118  A    between atoms: CG_216  and  CD_217
REMARK  119  A    between atoms: CD_217  and  CE_218
REMARK  120  A    between atoms: CE_218  and  NZ_219
REMARK  121  A    between atoms: N_220  and  CA_221
REMARK  122  A    between atoms: CA_221  and  C_222
REMARK  123  A    between atoms: CA_221  and  CB_224
REMARK  124  A    between atoms: N_225  and  CA_226
REMARK  125  A    between atoms: CA_226  and  C_227
REMARK  126  A    between atoms: CA_226  and  CB_229
REMARK  127  A    between atoms: CB_229  and  OG_230
REMARK  128  A    between atoms: N_231  and  CA_232
REMARK  129  A    between atoms: CA_232  and  C_233
REMARK  130  A    between atoms: CA_232  and  CB_235
REMARK  131  A    between atoms: CB_235  and  CG_236
REMARK  132  A    between atoms: CG_236  and  CD_237
REMARK  133  A    between atoms: CD_237  and  CE_238
REMARK  134  A    between atoms: CE_238  and  NZ_239
REMARK  135  A    between atoms: N_240  and  CA_241
REMARK  136  A    between atoms: CA_241  and  C_242
REMARK  137  A    between atoms: CA_241  and  CB_244
REMARK  138  A    between atoms: CB_244  and  CG_245
REMARK  139  A    between atoms: N_251  and  CA_252
REMARK  140  A    between atoms: CA_252  and  C_253
REMARK  141  A    between atoms: CA_252  and  CB_255
REMARK  142  A    between atoms: CB_255  and  CG1_256
REMARK  143  A    between atoms: CB_255  and  CG2_257
REMARK  144  A    between atoms: CG1_256  and  CD1_258
REMARK  145  A    between atoms: N_259  and  CA_260
REMARK  146  A    between atoms: CA_260  and  C_261
REMARK  147  A    between atoms: CA_260  and  CB_263
REMARK  148  A    between atoms: CB_263  and  CG_264
REMARK  149  A    between atoms: CG_264  and  CD1_265
REMARK  150  A    between atoms: CG_264  and  CD2_266
REMARK  151  A    between atoms: N_267  and  CA_268
REMARK  152  A    between atoms: CA_268  and  C_269
REMARK  153  A    between atoms: CA_268  and  CB_271
REMARK  154  A    between atoms: N_272  and  CA_273
REMARK  155  A    between atoms: CA_273  and  C_274
REMARK  156  A    between atoms: CA_273  and  CB_276
REMARK  157  A    between atoms: CB_276  and  CG_277
REMARK  158  A    between atoms: CG_277  and  CD2_278
REMARK  159  A    between atoms: CG_277  and  CD1_279
REMARK  160  A    between atoms: N_280  and  CA_281
REMARK  161  A    between atoms: CA_281  and  C_282
REMARK  162  A    between atoms: CA_281  and  CB_284
REMARK  163  A    between atoms: CB_284  and  CG_285
REMARK  164  A    between atoms: CG_285  and  CD_286
REMARK  165  A    between atoms: CD_286  and  CE_287
REMARK  166  A    between atoms: CE_287  and  NZ_288
REMARK  167  A    between atoms: N_289  and  CA_290
REMARK  168  A    between atoms: CA_290  and  C_291
REMARK  169  A    between atoms: CA_290  and  CB_293
REMARK  170  A    between atoms: CB_293  and  CG2_294
REMARK  171  A    between atoms: CB_293  and  CG1_295
REMARK  172  A    between atoms: N_296  and  CA_297
REMARK  173  A    between atoms: CA_297  and  C_298
REMARK  174  A    between atoms: CA_297  and  CB_300
REMARK  175  A    between atoms: CB_300  and  CG_301
REMARK  176  A    between atoms: CG_301  and  CD1_302
REMARK  177  A    between atoms: CG_301  and  CD2_303
REMARK  178  A    between atoms: N_304  and  CA_305
REMARK  179  A    between atoms: CA_305  and  C_306
REMARK  180  A    between atoms: CA_305  and  CB_308
REMARK  181  A    between atoms: CB_308  and  CG_309
REMARK  182  A    between atoms: N_315  and  CA_316
REMARK  183  A    between atoms: CA_316  and  C_317
REMARK  184  A    between atoms: CA_316  and  CB_319
REMARK  185  A    between atoms: CB_319  and  CG_320
REMARK  186  A    between atoms: CG_320  and  CD_321
REMARK  187  A    between atoms: CD_321  and  CE_322
REMARK  188  A    between atoms: CE_322  and  NZ_323
REMARK  189  A    between atoms: N_324  and  CA_325
REMARK  190  A    between atoms: CA_325  and  C_326
REMARK  191  A    between atoms: CA_325  and  CB_328
REMARK  192  A    between atoms: N_329  and  CA_330
REMARK  193  A    between atoms: CA_330  and  C_331
REMARK  194  A    between atoms: CA_330  and  CB_333
REMARK  195  A    between atoms: CB_333  and  CG_334
REMARK  196  A    between atoms: CG_334  and  CD_335
REMARK  197  A    between atoms: N_338  and  CA_339
REMARK  198  A    between atoms: CA_339  and  C_340
REMARK  199  A    between atoms: CA_339  and  CB_342
REMARK  200  A    between atoms: CB_342  and  CG_343
REMARK  201  A    between atoms: CG_343  and  CD1_344
REMARK  202  A    between atoms: CG_343  and  CD2_345
REMARK  203  A    between atoms: N_346  and  CA_347
REMARK  204  A    between atoms: CA_347  and  C_348
REMARK  205  A    between atoms: CA_347  and  CB_350
REMARK  206  A    between atoms: CB_350  and  CG_351
REMARK  207  A    between atoms: CG_351  and  CD_352
REMARK  208  A    between atoms: N_355  and  C_356
REMARK  209  A    between atoms: C_356  and  C_357
REMARK  210  A    between atoms: C_356  and  C_359
REMARK  211  A    between atoms: C_359  and  C_360
REMARK  212  A    between atoms: N_361  and  CA_362
REMARK  213  A    between atoms: CA_362  and  C_363
REMARK  214  A    between atoms: CA_362  and  CB_365
REMARK  215  A    between atoms: N_366  and  CA_367
REMARK  216  A    between atoms: CA_367  and  C_368
REMARK  217  A    between atoms: N_370  and  CA_371
REMARK  218  A    between atoms: CA_371  and  C_372
REMARK  219  A    between atoms: CA_371  and  CB_374
REMARK  220  A    between atoms: CB_374  and  CG2_375
REMARK  221  A    between atoms: CB_374  and  CG1_376
REMARK  222  A    between atoms: N_377  and  CA_378
REMARK  223  A    between atoms: CA_378  and  C_379
REMARK  224  A    between atoms: CA_378  and  CB_381
REMARK  225  A    between atoms: CB_381  and  CG_382
REMARK  226  A    between atoms: CG_382  and  CD_383
REMARK  227  A    between atoms: N_386  and  CA_387
REMARK  228  A    between atoms: CA_387  and  C_388
REMARK  229  A    between atoms: CA_387  and  CB_390
REMARK  230  A    between atoms: CB_390  and  CG_391
REMARK  231  A    between atoms: N_396  and  CA_397
REMARK  232  A    between atoms: CA_397  and  C_398
REMARK  233  A    between atoms: CA_397  and  CB_400
REMARK  234  A    between atoms: CB_400  and  CG_401
REMARK  235  A    between atoms: CG_401  and  CD_402
REMARK  236  A    between atoms: N_405  and  CA_406
REMARK  237  A    between atoms: CA_406  and  C_407
REMARK  238  A    between atoms: CA_406  and  CB_409
REMARK  239  A    between atoms: CB_409  and  CG_410
REMARK  240  A    between atoms: CG_410  and  CD2_411
REMARK  241  A    between atoms: CG_410  and  CD1_412
REMARK  242  A    between atoms: N_413  and  CA_414
REMARK  243  A    between atoms: CA_414  and  C_415
REMARK  244  A    between atoms: CA_414  and  CB_417
REMARK  245  A    between atoms: CB_417  and  CG_418
REMARK  246  A    between atoms: CG_418  and  CD_419
REMARK  247  A    between atoms: CD_419  and  NE_420
REMARK  248  A    between atoms: N_424  and  CA_425
REMARK  249  A    between atoms: CA_425  and  C_426
REMARK  250  A    between atoms: CA_425  and  CB_428
REMARK  251  A    between atoms: CB_428  and  CG_429
REMARK  252  A    between atoms: CG_429  and  CD_430
REMARK  253  A    between atoms: CD_430  and  NE_431
REMARK  254  A    between atoms: N_435  and  CA_436
REMARK  255  A    between atoms: CA_436  and  C_437
REMARK  256  A    between atoms: CA_436  and  CB_439
REMARK  257  A    between atoms: CB_439  and  CG_440
REMARK  258  A    between atoms: CG_440  and  CD_441
REMARK  259  A    between atoms: N_444  and  CA_445
REMARK  260  A    between atoms: CA_445  and  C_446
REMARK  261  A    between atoms: CA_445  and  CB_448
REMARK  262  A    between atoms: CB_448  and  CG1_449
REMARK  263  A    between atoms: CB_448  and  CG2_450
REMARK  264  A    between atoms: N_451  and  C_452
REMARK  265  A    between atoms: C_452  and  C_453
REMARK  266  A    between atoms: C_452  and  C_455
REMARK  267  A    between atoms: C_455  and  C_456
REMARK  268  A    between atoms: N_457  and  CA_458
REMARK  269  A    between atoms: CA_458  and  C_459
REMARK  270  A    between atoms: CA_458  and  CB_461
REMARK  271  A    between atoms: CB_461  and  CG1_462
REMARK  272  A    between atoms: CB_461  and  CG2_463
REMARK  273  A    between atoms: CG1_462  and  CD1_464
REMARK  274  A    between atoms: N_465  and  CA_466
REMARK  275  A    between atoms: CA_466  and  C_467
REMARK  276  A    between atoms: CA_466  and  CB_469
REMARK  277  A    between atoms: CB_469  and  CG_470
REMARK  278  A    between atoms: CG_470  and  CD_471
REMARK  279  A    between atoms: N_474  and  C_475
REMARK  280  A    between atoms: C_475  and  C_476
REMARK  281  A    between atoms: C_475  and  C_478
REMARK  282  A    between atoms: C_478  and  O_479
REMARK  283  A    between atoms: N_480  and  C_481
REMARK  284  A    between atoms: C_481  and  C_482
REMARK  285  A    between atoms: C_481  and  C_484
REMARK  286  A    between atoms: C_484  and  C_485
REMARK  287  A    between atoms: N_490  and  C_491
REMARK  288  A    between atoms: C_491  and  C_492
REMARK  289  A    between atoms: C_491  and  C_494
REMARK  290  A    between atoms: C_494  and  C_495
REMARK  291  A    between atoms: C_495  and  C_496
REMARK  292  A    between atoms: C_495  and  C_497
REMARK  293  A    between atoms: N_498  and  C_499
REMARK  294  A    between atoms: C_499  and  C_500
REMARK  295  A    between atoms: C_499  and  C_502
REMARK  296  A    between atoms: C_502  and  C_503
REMARK  297  A    between atoms: C_503  and  C_504
REMARK  298  A    between atoms: C_504  and  N_505
REMARK  299  A    between atoms: N_509  and  C_510
REMARK  300  A    between atoms: C_510  and  C_511
REMARK  301  A    between atoms: C_510  and  C_513
REMARK  302  A    between atoms: C_513  and  C_514
REMARK  303  A    between atoms: C_520  and  C_521
REMARK  304  A    between atoms: N_526  and  C_527
REMARK  305  A    between atoms: C_527  and  C_528
REMARK  306  A    between atoms: C_527  and  C_530
REMARK  307  A    between atoms: C_530  and  C_531
REMARK  308  A    between atoms: N_534  and  C_535
REMARK  309  A    between atoms: C_535  and  C_536
REMARK  310  A    between atoms: C_535  and  C_538
REMARK  311  A    between atoms: C_538  and  C_539
REMARK  312  A    between atoms: C_538  and  C_540
REMARK  313  A    between atoms: C_539  and  C_541
REMARK  314  A    between atoms: N_542  and  C_543
REMARK  315  A    between atoms: C_543  and  C_544
REMARK  316  A    between atoms: C_543  and  C_546
REMARK  317  A    between atoms: C_546  and  C_547
REMARK  318  A    between atoms: C_547  and  C_548
REMARK  319  A    between atoms: C_547  and  C_549
REMARK  320  A    between atoms: N_550  and  C_551
REMARK  321  A    between atoms: C_551  and  C_552
REMARK  322  A    between atoms: C_551  and  C_554
REMARK  323  A    between atoms: C_554  and  C_555
REMARK  324  A    between atoms: C_555  and  C_556
REMARK  325  A    between atoms: C_556  and  N_557
REMARK  326  A    between atoms: N_561  and  C_562
REMARK  327  A    between atoms: C_562  and  C_567
REMARK  328  A    between atoms: C_563  and  C_564
REMARK  329  A    between atoms: C_568  and  C_569
REMARK  330  A    between atoms: C_568  and  C_571
REMARK  331  A    between atoms: C_569  and  C_572
REMARK  332  A    between atoms: C_569  and  C_573
REMARK  333  A    between atoms: C_570  and  C_573
REMARK  334  A    between atoms: N_574  and  CA_575
REMARK  335  A    between atoms: CA_575  and  C_576
REMARK  336  A    between atoms: CA_575  and  CB_578
REMARK  337  A    between atoms: CB_578  and  CG_579
REMARK  338  A    between atoms: CZ_584  and  OH_585
REMARK  339  A    between atoms: N_586  and  CA_587
REMARK  340  A    between atoms: CA_587  and  C_588
REMARK  341  A    between atoms: N_590  and  CA_591
REMARK  342  A    between atoms: CA_591  and  C_592
REMARK  343  A    between atoms: CA_591  and  CB_594
REMARK  344  A    between atoms: CB_594  and  CG_595
REMARK  345  A    between atoms: CZ_600  and  OH_601
REMARK  346  A    between atoms: N_602  and  CA_603
REMARK  347  A    between atoms: CA_603  and  C_604
REMARK  348  A    between atoms: CA_603  and  CB_606
REMARK  349  A    between atoms: CB_606  and  CG_607
REMARK  350  A    between atoms: N_613  and  CA_614
REMARK  351  A    between atoms: CA_614  and  C_615
REMARK  352  A    between atoms: CA_614  and  CB_617
REMARK  353  A    between atoms: CB_617  and  CG_618
REMARK  354  A    between atoms: N_623  and  CA_624
REMARK  355  A    between atoms: CA_624  and  C_625
REMARK  356  A    between atoms: CA_624  and  CB_627
REMARK  357  A    between atoms: CB_627  and  CG_628
REMARK  358  A    between atoms: N_631  and  CA_632
REMARK  359  A    between atoms: CA_632  and  C_633
REMARK  360  A    between atoms: CA_632  and  CB_635
REMARK  361  A    between atoms: N_636  and  CA_637
REMARK  362  A    between atoms: CA_637  and  C_638
REMARK  363  A    between atoms: CA_637  and  CB_640
REMARK  364  A    between atoms: CB_640  and  OG1_641
REMARK  365  A    between atoms: CB_640  and  CG2_642
REMARK  366  A    between atoms: N_643  and  CA_644
REMARK  367  A    between atoms: CA_644  and  C_645
REMARK  368  A    between atoms: CA_644  and  CB_647
REMARK  369  A    between atoms: CB_647  and  CG_648
REMARK  370  A    between atoms: CG_648  and  CD_649
REMARK  371  A    between atoms: CD_649  and  NE_650
REMARK  372  A    between atoms: N_654  and  CA_655
REMARK  373  A    between atoms: CA_655  and  C_656
REMARK  374  A    between atoms: CA_655  and  CB_658
REMARK  375  A    between atoms: CB_658  and  CG1_659
REMARK  376  A    between atoms: CB_658  and  CG2_660
REMARK  377  A    between atoms: N_661  and  CA_662
REMARK  378  A    between atoms: CA_662  and  C_663
REMARK  379  A    between atoms: CA_662  and  CB_665
REMARK  380  A    between atoms: CB_665  and  CG_666
REMARK  381  A    between atoms: CZ_671  and  OH_672
REMARK  382  A    between atoms: N_673  and  CA_674
REMARK  383  A    between atoms: CA_674  and  C_675
REMARK  384  A    between atoms: CA_674  and  CB_677
REMARK  385  A    between atoms: CB_677  and  CG_678
REMARK  386  A    between atoms: CG_678  and  CD2_679
REMARK  387  A    between atoms: CG_678  and  CD1_680
REMARK  388  A    between atoms: N_681  and  CA_682
REMARK  389  A    between atoms: CA_682  and  C_683
REMARK  390  A    between atoms: CA_682  and  CB_685
REMARK  391  A    between atoms: CB_685  and  CG1_686
REMARK  392  A    between atoms: CB_685  and  CG2_687
REMARK  393  A    between atoms: CG1_686  and  CD1_688
REMARK  394  A    between atoms: N_689  and  CA_690
REMARK  395  A    between atoms: CA_690  and  C_691
REMARK  396  A    between atoms: CA_690  and  CB_693
REMARK  397  A    between atoms: CB_693  and  CG_694
REMARK  398  A    between atoms: CG_694  and  CD2_695
REMARK  399  A    between atoms: CG_694  and  CD1_696
REMARK  400  A    between atoms: N_697  and  CA_698
REMARK  401  A    between atoms: CA_698  and  C_699
REMARK  402  A    between atoms: CA_698  and  CB_701
REMARK  403  A    between atoms: CB_701  and  CG_702
REMARK  404  A    between atoms: CG_702  and  CD_703
REMARK  405  A    between atoms: N_706  and  CA_707
REMARK  406  A    between atoms: CA_707  and  C_708
REMARK  407  A    between atoms: CA_707  and  CB_710
REMARK  408  A    between atoms: CB_710  and  CG_711
REMARK  409  A    between atoms: CZ_716  and  OH_717
REMARK  410  A    between atoms: N_718  and  CA_719
REMARK  411  A    between atoms: CA_719  and  C_720
REMARK  412  A    between atoms: CA_719  and  CB_722
REMARK  413  A    between atoms: CA_724  and  C_725
REMARK  414  A    between atoms: N_730  and  CA_731
REMARK  415  A    between atoms: CA_731  and  C_732
REMARK  416  A    between atoms: CA_731  and  CB_734
REMARK  417  A    between atoms: CB_734  and  CG_735
REMARK  418  A    between atoms: CG_735  and  CD1_736
REMARK  419  A    between atoms: CG_735  and  CD2_737
REMARK  420  A    between atoms: N_738  and  CA_739
REMARK  421  A    between atoms: CA_739  and  C_740
REMARK  422  A    between atoms: N_742  and  CA_743
REMARK  423  A    between atoms: CA_743  and  C_744
REMARK  424  A    between atoms: CA_743  and  CB_746
REMARK  425  A    between atoms: CB_746  and  OG1_747
REMARK  426  A    between atoms: CB_746  and  CG2_748
REMARK  427  A    between atoms: N_749  and  CA_750
REMARK  428  A    between atoms: CA_750  and  C_751
REMARK  429  A    between atoms: CA_750  and  CB_753
REMARK  430  A    between atoms: CB_753  and  CG2_754
REMARK  431  A    between atoms: CB_753  and  CG1_755
REMARK  432  A    between atoms: N_756  and  CA_757
REMARK  433  A    between atoms: CA_757  and  C_758
REMARK  434  A    between atoms: CA_757  and  CB_760
REMARK  435  A    between atoms: CB_760  and  CG_761
REMARK  436  A    between atoms: CZ_766  and  OH_767
REMARK  437  A    between atoms: N_768  and  C_769
REMARK  438  A    between atoms: C_769  and  C_770
REMARK  439  A    between atoms: C_769  and  C_772
REMARK  440  A    between atoms: C_772  and  C_773
REMARK  441  A    between atoms: N_774  and  CA_775
REMARK  442  A    between atoms: CA_775  and  C_776
REMARK  443  A    between atoms: CA_775  and  CB_778
REMARK  444  A    between atoms: CB_778  and  CG_779
REMARK  445  A    between atoms: CG_779  and  CD_780
REMARK  446  A    between atoms: N_783  and  CA_784
REMARK  447  A    between atoms: CA_784  and  C_785
REMARK  448  A    between atoms: CA_784  and  CB_787
REMARK  449  A    between atoms: CB_787  and  CG_788
REMARK  450  A    between atoms: CG_788  and  CD2_789
REMARK  451  A    between atoms: CG_788  and  CD1_790
REMARK  452  A    between atoms: N_791  and  CA_792
REMARK  453  A    between atoms: CA_792  and  C_793
REMARK  454  A    between atoms: CA_792  and  CB_795
REMARK  455  A    between atoms: CB_795  and  CG_796
REMARK  456  A    between atoms: CG_796  and  CD_797
REMARK  457  A    between atoms: N_800  and  CA_801
REMARK  458  A    between atoms: CA_801  and  C_802
REMARK  459  A    between atoms: CA_801  and  CB_804
REMARK  460  A    between atoms: CB_804  and  CG_805
REMARK  461  A    between atoms: CG_805  and  CD_806
REMARK  462  A    between atoms: CD_806  and  CE_807
REMARK  463  A    between atoms: CE_807  and  NZ_808
REMARK  464  A    between atoms: N_809  and  CA_810
REMARK  465  A    between atoms: CA_810  and  C_811
REMARK  466  A    between atoms: CA_810  and  CB_813
REMARK  467  A    between atoms: CB_813  and  CG_814
REMARK  468  A    between atoms: CG_814  and  CD1_815
REMARK  469  A    between atoms: CG_814  and  CD2_816
REMARK  470  A    between atoms: N_817  and  CA_818
REMARK  471  A    between atoms: CA_818  and  C_819
REMARK  472  A    between atoms: CA_818  and  CB_821
REMARK  473  A    between atoms: CB_821  and  OG_822
REMARK  474  A    between atoms: N_823  and  CA_824
REMARK  475  A    between atoms: CA_824  and  C_825
REMARK  476  A    between atoms: CA_824  and  CB_827
REMARK  477  A    between atoms: CB_827  and  CG_828
REMARK  478  A    between atoms: CG_828  and  CD_829
REMARK  479  A    between atoms: CD_829  and  CE_830
REMARK  480  A    between atoms: CE_830  and  NZ_831
REMARK  481  A    between atoms: N_832  and  CA_833
REMARK  482  A    between atoms: CA_833  and  C_834
REMARK  483  A    between atoms: CA_833  and  CB_836
REMARK  484  A    between atoms: CB_836  and  CG_837
REMARK  485  A    between atoms: N_843  and  CA_844
REMARK  486  A    between atoms: CA_844  and  C_845
REMARK  487  A    between atoms: CA_844  and  CB_847
REMARK  488  A    between atoms: CB_847  and  CG_848
REMARK  489  A    between atoms: N_851  and  CA_852
REMARK  490  A    between atoms: CA_852  and  C_853
REMARK  491  A    between atoms: CA_852  and  CB_855
REMARK  492  A    between atoms: CB_855  and  CG_856
REMARK  493  A    between atoms: CG_856  and  CD_857
REMARK  494  A    between atoms: N_860  and  CA_861
REMARK  495  A    between atoms: CA_861  and  C_862
REMARK  496  A    between atoms: CA_861  and  CB_864
REMARK  497  A    between atoms: CB_864  and  CG_865
REMARK  498  A    between atoms: CG_865  and  CD_866
REMARK  499  A    between atoms: N_869  and  CA_870
REMARK  500  A    between atoms: CA_870  and  C_871
REMARK  501  A    between atoms: CA_870  and  CB_873
REMARK  502  A    between atoms: CB_873  and  CG_874
REMARK  503  A    between atoms: CG_874  and  CD_875
REMARK  504  A    between atoms: CD_875  and  NE_876
REMARK  505  A    between atoms: N_880  and  CA_881
REMARK  506  A    between atoms: CA_881  and  C_882
REMARK  507  A    between atoms: CA_881  and  CB_884
REMARK  508  A    between atoms: CB_884  and  OG1_885
REMARK  509  A    between atoms: CB_884  and  CG2_886
REMARK  510  A    between atoms: N_887  and  CA_888
REMARK  511  A    between atoms: CA_888  and  C_889
REMARK  512  A    between atoms: CA_888  and  CB_891
REMARK  513  A    between atoms: N_892  and  CA_893
REMARK  514  A    between atoms: CA_893  and  C_894
REMARK  515  A    between atoms: CA_893  and  CB_896
REMARK  516  A    between atoms: CB_896  and  OG1_897
REMARK  517  A    between atoms: CB_896  and  CG2_898
REMARK  518  A    between atoms: N_899  and  CA_900
REMARK  519  A    between atoms: CA_900  and  C_901
REMARK  520  A    between atoms: CA_900  and  CB_903
REMARK  521  A    between atoms: CB_903  and  CG_904
REMARK  522  A    between atoms: CZ_909  and  OH_910
REMARK  523  A    between atoms: N_911  and  CA_912
REMARK  524  A    between atoms: CA_912  and  C_913
REMARK  525  A    between atoms: CA_912  and  CB_915
REMARK  526  A    between atoms: CB_915  and  CG1_916
REMARK  527  A    between atoms: CB_915  and  CG2_917
REMARK  528  A    between atoms: CG1_916  and  CD1_918
REMARK  529  A    between atoms: N_919  and  CA_920
REMARK  530  A    between atoms: CA_920  and  C_921
REMARK  531  A    between atoms: CA_920  and  CB_923
REMARK  532  A    between atoms: CB_923  and  OG1_924
REMARK  533  A    between atoms: CB_923  and  CG2_925
REMARK  534  A    between atoms: N_926  and  CA_927
REMARK  535  A    between atoms: CA_927  and  C_928
REMARK  536  A    between atoms: CA_927  and  CB_930
REMARK  537  A    between atoms: CB_930  and  CG_931
REMARK  538  A    between atoms: CG_931  and  CD_932
REMARK  539  A    between atoms: N_935  and  CA_936
REMARK  540  A    between atoms: CA_936  and  C_937
REMARK  541  A    between atoms: CA_936  and  CB_939
REMARK  542  A    between atoms: CB_939  and  CG_940
REMARK  543  A    between atoms: CG_940  and  CD2_941
REMARK  544  A    between atoms: CG_940  and  CD1_942
REMARK  545  A    between atoms: N_943  and  CA_944
REMARK  546  A    between atoms: CA_944  and  C_945
REMARK  547  A    between atoms: CA_944  and  CB_947
REMARK  548  A    between atoms: N_948  and  CA_949
REMARK  549  A    between atoms: CA_949  and  C_950
REMARK  550  A    between atoms: CA_949  and  CB_952
REMARK  551  A    between atoms: CB_952  and  CG_953
REMARK  552  A    between atoms: N_956  and  CA_957
REMARK  553  A    between atoms: CA_957  and  C_958
REMARK  554  A    between atoms: CA_957  and  CB_960
REMARK  555  A    between atoms: N_961  and  CA_962
REMARK  556  A    between atoms: CA_962  and  C_963
REMARK  557  A    between atoms: CA_962  and  CB_965
REMARK  558  A    between atoms: CB_965  and  CG_966
REMARK  559  A    between atoms: CG_966  and  CD2_967
REMARK  560  A    between atoms: CG_966  and  CD1_968
REMARK  561  A    between atoms: N_969  and  CA_970
REMARK  562  A    between atoms: CA_970  and  C_971
REMARK  563  A    between atoms: CA_970  and  CB_973
REMARK  564  A    between atoms: CB_973  and  OG_974
REMARK  565  A    between atoms: N_975  and  CA_976
REMARK  566  A    between atoms: CA_976  and  C_977
REMARK  567  A    between atoms: CA_976  and  CB_979
REMARK  568  A    between atoms: CB_979  and  CG_980
REMARK  569  A    between atoms: CZ_985  and  OH_986
REMARK  570  A    between atoms: N_987  and  CA_988
REMARK  571  A    between atoms: CA_988  and  C_989
REMARK  572  A    between atoms: CA_988  and  CB_991
REMARK  573  A    between atoms: CB_991  and  SG_992
REMARK  574  A    between atoms: N_993  and  CA_994
REMARK  575  A    between atoms: CA_994  and  C_995
REMARK  576  A    between atoms: CA_994  and  CB_997
REMARK  577  A    between atoms: CB_997  and  CG_998
REMARK  578  A    between atoms: N_1003  and  C_1004
REMARK  579  A    between atoms: C_1004  and  C_1005
REMARK  580  A    between atoms: C_1004  and  C_1007
REMARK  581  A    between atoms: C_1007  and  O_1008
REMARK  582  A    between atoms: N_1009  and  C_1010
REMARK  583  A    between atoms: C_1010  and  C_1011
REMARK  584  A    between atoms: C_1010  and  C_1013
REMARK  585  A    between atoms: C_1013  and  C_1014
REMARK  586  A    between atoms: C_1014  and  C_1015
REMARK  587  A    between atoms: C_1015  and  C_1016
REMARK  588  A    between atoms: C_1016  and  N_1017
REMARK  589  A    between atoms: N_1018  and  C_1019
REMARK  590  A    between atoms: C_1020  and  C_1021
REMARK  591  A    between atoms: C_1020  and  C_1024
REMARK  592  A    between atoms: C_1023  and  C_1026
REMARK  593  A    between atoms: C_1025  and  C_1026
REMARK  594  A    between atoms: C_1027  and  N_1029
REMARK  595  A    between atoms: C_1028  and  N_1030
REMARK  596  A    between atoms: N_1037  and  C_1038
REMARK  597  A    between atoms: C_1038  and  C_1039
REMARK  598  A    between atoms: C_1038  and  C_1041
REMARK  599  A    between atoms: C_1041  and  C_1042
REMARK  600  A    between atoms: C_1041  and  C_1043
REMARK  601  A    between atoms: N_1044  and  C_1045
REMARK  602  A    between atoms: C_1045  and  C_1046
REMARK  603  A    between atoms: C_1045  and  C_1048
REMARK  604  A    between atoms: C_1048  and  C_1049
REMARK  605  A    between atoms: C_1048  and  C_1050
REMARK  606  A    between atoms: C_1049  and  C_1051
REMARK  607  A    between atoms: N_1052  and  C_1053
REMARK  608  A    between atoms: C_1053  and  C_1054
REMARK  609  A    between atoms: C_1053  and  C_1056
REMARK  610  A    between atoms: C_1056  and  C_1057
REMARK  611  A    between atoms: N_1062  and  C_1063
REMARK  612  A    between atoms: C_1063  and  C_1064
REMARK  613  A    between atoms: C_1063  and  C_1066
REMARK  614  A    between atoms: C_1066  and  C_1067
REMARK  615  A    between atoms: C_1067  and  C_1068
REMARK  616  A    between atoms: C_1068  and  N_1069
REMARK  617  A    between atoms: N_1073  and  C_1074
REMARK  618  A    between atoms: C_1074  and  C_1077
REMARK  619  A    between atoms: C_1077  and  C_1078
REMARK  620  A    between atoms: N_1081  and  C_1084
REMARK  621  A    between atoms: C_1083  and  C_1085
REMARK  622  A    between atoms: C_1085  and  C_1086
REMARK  623  A    between atoms: C_1085  and  O_1087
REMARK  624  A    between atoms: C_1085  and  N_1097
REMARK  625  A    between atoms: C_1089  and  C_1094
REMARK  626  A    between atoms: C_1090  and  C_1091
REMARK  627  A    between atoms: C_1093  and  C_1094
REMARK  628  A    between atoms: C_1098  and  C_1099
REMARK  629  A    between atoms: C_1098  and  C_1101
REMARK  630  A    between atoms: C_1101  and  C_1102
REMARK  631  A    between atoms: C_1102  and  C_1103
REMARK  632  A    between atoms: C_1103  and  C_1104
REMARK  633  A    between atoms: C_1104  and  N_1105
REMARK  634  A    between atoms: C_1107  and  C_1108
REMARK  635  A    between atoms: N_1113  and  CA_1114
REMARK  636  A    between atoms: CA_1114  and  C_1115
REMARK  637  A    between atoms: CA_1114  and  CB_1117
REMARK  638  A    between atoms: CB_1117  and  CG_1118
REMARK  639  A    between atoms: CG_1118  and  CD_1119
REMARK  640  A    between atoms: N_1122  and  CA_1123
REMARK  641  A    between atoms: CA_1123  and  C_1124
REMARK  642  A    between atoms: CA_1123  and  CB_1126
REMARK  643  A    between atoms: CB_1126  and  CG_1127
REMARK  644  A    between atoms: N_1130  and  CA_1131
REMARK  645  A    between atoms: CA_1131  and  C_1132
REMARK  646  A    between atoms: CA_1131  and  CB_1134
REMARK  647  A    between atoms: CB_1134  and  CG_1135
REMARK  648  A    between atoms: CG_1135  and  CD2_1136
REMARK  649  A    between atoms: CG_1135  and  CD1_1137
REMARK  650  A    between atoms: N_1138  and  CA_1139
REMARK  651  A    between atoms: CA_1139  and  C_1140
REMARK  652  A    between atoms: CA_1139  and  CB_1142
REMARK  653  A    between atoms: CB_1142  and  CG_1143
REMARK  654  A    between atoms: CG_1143  and  CD1_1144
REMARK  655  A    between atoms: CG_1143  and  CD2_1145
REMARK  656  A    between atoms: N_1146  and  CA_1147
REMARK  657  A    between atoms: CA_1147  and  C_1148
REMARK  658  A    between atoms: CA_1147  and  CB_1150
REMARK  659  A    between atoms: CB_1150  and  CG_1151
REMARK  660  A    between atoms: CG_1151  and  CD2_1152
REMARK  661  A    between atoms: CG_1151  and  CD1_1153
REMARK  662  A    between atoms: N_1154  and  CA_1155
REMARK  663  A    between atoms: CA_1155  and  C_1156
REMARK  664  A    between atoms: N_1158  and  CA_1159
REMARK  665  A    between atoms: CA_1159  and  C_1160
REMARK  666  A    between atoms: CA_1159  and  CB_1162
REMARK  667  A    between atoms: CB_1162  and  OG_1163
REMARK  668  A    between atoms: N_1164  and  CA_1165
REMARK  669  A    between atoms: CA_1165  and  C_1166
REMARK  670  A    between atoms: CA_1165  and  CB_1168
REMARK  671  A    between atoms: N_1169  and  CA_1170
REMARK  672  A    between atoms: CA_1170  and  C_1171
REMARK  673  A    between atoms: N_1173  and  CA_1174
REMARK  674  A    between atoms: CA_1174  and  C_1175
REMARK  675  A    between atoms: CA_1174  and  CB_1177
REMARK  676  A    between atoms: CB_1177  and  CG_1178
REMARK  677  A    between atoms: CG_1178  and  CD_1179
REMARK  678  A    between atoms: N_1182  and  CA_1183
REMARK  679  A    between atoms: CA_1183  and  C_1184
REMARK  680  A    between atoms: CA_1183  and  CB_1186
REMARK  681  A    between atoms: CB_1186  and  CG_1187
REMARK  682  A    between atoms: CG_1187  and  CD2_1188
REMARK  683  A    between atoms: CG_1187  and  CD1_1189
REMARK  684  A    between atoms: N_1190  and  CA_1191
REMARK  685  A    between atoms: CA_1191  and  C_1192
REMARK  686  A    between atoms: CA_1191  and  CB_1194
REMARK  687  A    between atoms: CB_1194  and  CG_1195
REMARK  688  A    between atoms: CG_1195  and  CD_1196
REMARK  689  A    between atoms: CD_1196  and  CE_1197
REMARK  690  A    between atoms: CE_1197  and  NZ_1198
REMARK  691  A    between atoms: N_1199  and  CA_1200
REMARK  692  A    between atoms: CA_1200  and  C_1201
REMARK  693  A    between atoms: CA_1200  and  CB_1203
REMARK  694  A    between atoms: CB_1203  and  CG1_1204
REMARK  695  A    between atoms: CB_1203  and  CG2_1205
REMARK  696  A    between atoms: CG1_1204  and  CD1_1206
REMARK  697  A    between atoms: N_1207  and  CA_1208
REMARK  698  A    between atoms: CA_1208  and  C_1209
REMARK  699  A    between atoms: CA_1208  and  CB_1211
REMARK  700  A    between atoms: N_1212  and  CA_1213
REMARK  701  A    between atoms: CA_1213  and  C_1214
REMARK  702  A    between atoms: CA_1213  and  CB_1216
REMARK  703  A    between atoms: CB_1216  and  CG_1217
REMARK  704  A    between atoms: N_1220  and  CA_1221
REMARK  705  A    between atoms: CA_1221  and  C_1222
REMARK  706  A    between atoms: CA_1221  and  CB_1224
REMARK  707  A    between atoms: CB_1224  and  CG_1225
REMARK  708  A    between atoms: N_1231  and  CA_1232
REMARK  709  A    between atoms: CA_1232  and  C_1233
REMARK  710  A    between atoms: N_1235  and  CA_1236
REMARK  711  A    between atoms: CA_1236  and  C_1237
REMARK  712  A    between atoms: CA_1236  and  CB_1239
REMARK  713  A    between atoms: CB_1239  and  CG_1240
REMARK  714  A    between atoms: N_1249  and  CA_1250
REMARK  715  A    between atoms: CA_1250  and  C_1251
REMARK  716  A    between atoms: CA_1250  and  CB_1253
REMARK  717  A    between atoms: CB_1253  and  OG_1254
REMARK  718  A    between atoms: N_1255  and  CA_1256
REMARK  719  A    between atoms: CA_1256  and  C_1257
REMARK  720  A    between atoms: CA_1256  and  CB_1259
REMARK  721  A    between atoms: CB_1259  and  CG2_1260
REMARK  722  A    between atoms: CB_1259  and  CG1_1261
REMARK  723  A    between atoms: N_1262  and  CA_1263
REMARK  724  A    between atoms: CA_1263  and  C_1264
REMARK  725  A    between atoms: CA_1263  and  CB_1266
REMARK  726  A    between atoms: CB_1266  and  CG_1267
REMARK  727  A    between atoms: N_1272  and  CA_1273
REMARK  728  A    between atoms: CA_1273  and  C_1274
REMARK  729  A    between atoms: CA_1273  and  CB_1276
REMARK  730  A    between atoms: CA_1278  and  C_1279
REMARK  731  A    between atoms: N_1284  and  CA_1285
REMARK  732  A    between atoms: CA_1285  and  C_1286
REMARK  733  A    between atoms: CA_1285  and  CB_1288
REMARK  734  A    between atoms: CB_1288  and  OG_1289
REMARK  735  A    between atoms: N_1290  and  CA_1291
REMARK  736  A    between atoms: CA_1291  and  C_1292
REMARK  737  A    between atoms: CA_1291  and  CB_1294
REMARK  738  A    between atoms: CB_1294  and  OG_1295
REMARK  739  A    between atoms: N_1296  and  C_1297
REMARK  740  A    between atoms: C_1297  and  C_1298
REMARK  741  A    between atoms: C_1297  and  C_1300
REMARK  742  A    between atoms: C_1300  and  C_1301
REMARK  743  A    between atoms: C_1301  and  C_1302
REMARK  744  A    between atoms: N_1303  and  CA_1304
REMARK  745  A    between atoms: CA_1304  and  C_1305
REMARK  746  A    between atoms: CA_1304  and  CB_1307
REMARK  747  A    between atoms: CB_1307  and  CG_1308
REMARK  748  A    between atoms: CG_1308  and  CD_1309
REMARK  749  A    between atoms: CD_1309  and  NE_1310
REMARK  750  A    between atoms: N_1314  and  CA_1315
REMARK  751  A    between atoms: CA_1315  and  C_1316
REMARK  752  A    between atoms: CA_1315  and  CB_1318
REMARK  753  A    between atoms: CB_1318  and  OG1_1319
REMARK  754  A    between atoms: CB_1318  and  CG2_1320
REMARK  755  A    between atoms: N_1321  and  C_1322
REMARK  756  A    between atoms: C_1322  and  C_1323
REMARK  757  A    between atoms: C_1322  and  C_1325
REMARK  758  A    between atoms: C_1325  and  C_1326
REMARK  759  A    between atoms: C_1326  and  C_1327
REMARK  760  A    between atoms: C_1326  and  C_1328
REMARK  761  A    between atoms: N_1329  and  C_1330
REMARK  762  A    between atoms: C_1330  and  C_1331
REMARK  763  A    between atoms: C_1330  and  C_1333
REMARK  764  A    between atoms: N_1334  and  C_1335
REMARK  765  A    between atoms: C_1335  and  C_1336
REMARK  766  A    between atoms: N_1338  and  C_1339
REMARK  767  A    between atoms: C_1339  and  C_1340
REMARK  768  A    between atoms: C_1339  and  C_1342
REMARK  769  A    between atoms: C_1342  and  O_1343
REMARK  770  A    between atoms: C_1342  and  C_1344
REMARK  771  A    between atoms: N_1345  and  C_1346
REMARK  772  A    between atoms: C_1346  and  C_1347
REMARK  773  A    between atoms: C_1346  and  C_1349
REMARK  774  A    between atoms: C_1349  and  C_1350
REMARK  775  A    between atoms: C_1350  and  C_1351
REMARK  776  A    between atoms: C_1350  and  C_1352
REMARK  777  A    between atoms: N_1353  and  C_1354
REMARK  778  A    between atoms: C_1354  and  C_1355
REMARK  779  A    between atoms: C_1354  and  C_1357
REMARK  780  A    between atoms: C_1357  and  C_1358
REMARK  781  A    between atoms: N_1361  and  C_1362
REMARK  782  A    between atoms: C_1362  and  C_1363
REMARK  783  A    between atoms: C_1362  and  C_1365
REMARK  784  A    between atoms: C_1365  and  C_1366
REMARK  785  A    between atoms: C_1371  and  O_1372
REMARK  786  A    between atoms: N_1373  and  C_1374
REMARK  787  A    between atoms: C_1374  and  C_1375
REMARK  788  A    between atoms: C_1374  and  C_1377
REMARK  789  A    between atoms: C_1377  and  C_1378
REMARK  790  A    between atoms: C_1378  and  C_1379
REMARK  791  A    between atoms: C_1378  and  C_1380
REMARK  792  A    between atoms: C_1382  and  C_1383
REMARK  793  A    between atoms: C_1389  and  C_1390
REMARK  794  A    between atoms: N_1395  and  C_1396
REMARK  795  A    between atoms: C_1396  and  C_1399
REMARK  796  A    between atoms: C_1399  and  C_1400
REMARK  797  A    between atoms: C_1400  and  C_1401
REMARK  798  A    between atoms: N_1405  and  C_1406
REMARK  799  A    between atoms: C_1407  and  C_1412
REMARK  800  A    between atoms: C_1408  and  O_1410
REMARK  801  A    between atoms: C_1409  and  O_1411
REMARK  802  A    between atoms: O_1410  and  O_1411
REMARK  803  A    between atoms: C_1412  and  C_1414
REMARK  804  A    between atoms: C_1413  and  C_1415
REMARK  805  A    between atoms: S_1416  and  C_1418
REMARK  806  A    between atoms: S_1417  and  C_1419
REMARK  807  A    between atoms: C_1418  and  C_1419
REMARK  808  A    between atoms: N_1420  and  CA_1421
REMARK  809  A    between atoms: CA_1421  and  C_1422
REMARK  810  A    between atoms: CA_1421  and  CB_1424
REMARK  811  A    between atoms: CB_1424  and  CG1_1425
REMARK  812  A    between atoms: CB_1424  and  CG2_1426
REMARK  813  A    between atoms: CG1_1425  and  CD1_1427
REMARK  814  A    between atoms: N_1428  and  CA_1429
REMARK  815  A    between atoms: CA_1429  and  C_1430
REMARK  816  A    between atoms: CA_1429  and  CB_1432
REMARK  817  A    between atoms: CB_1432  and  CG_1433
REMARK  818  A    between atoms: CG_1433  and  CD_1434
REMARK  819  A    between atoms: N_1437  and  CA_1438
REMARK  820  A    between atoms: CA_1438  and  C_1439
REMARK  821  A    between atoms: N_1441  and  CA_1442
REMARK  822  A    between atoms: CA_1442  and  C_1443
REMARK  823  A    between atoms: CA_1442  and  CB_1445
REMARK  824  A    between atoms: CB_1445  and  CG_1446
REMARK  825  A    between atoms: CG_1446  and  CD_1447
REMARK  826  A    between atoms: CD_1447  and  NE_1448
REMARK  827  A    between atoms: N_1452  and  C_1453
REMARK  828  A    between atoms: C_1453  and  C_1454
REMARK  829  A    between atoms: C_1453  and  C_1456
REMARK  830  A    between atoms: C_1456  and  C_1457
REMARK  831  A    between atoms: C_1457  and  S_1458
REMARK  832  A    between atoms: N_1459  and  CA_1460
REMARK  833  A    between atoms: CA_1460  and  C_1461
REMARK  834  A    between atoms: CA_1460  and  CB_1463
REMARK  835  A    between atoms: CB_1463  and  CG_1464
REMARK  836  A    between atoms: N_1469  and  CA_1470
REMARK  837  A    between atoms: CA_1470  and  C_1471
REMARK  838  A    between atoms: CA_1470  and  CB_1473
REMARK  839  A    between atoms: CB_1473  and  CG_1474
REMARK  840  A    between atoms: N_1477  and  CA_1478
REMARK  841  A    between atoms: CA_1478  and  C_1479
REMARK  842  A    between atoms: CA_1478  and  CB_1481
REMARK  843  A    between atoms: CB_1481  and  CG_1482
REMARK  844  A    between atoms: CG_1482  and  CD_1483
REMARK  845  A    between atoms: N_1486  and  CA_1487
REMARK  846  A    between atoms: CA_1487  and  C_1488
REMARK  847  A    between atoms: CA_1487  and  CB_1490
REMARK  848  A    between atoms: CB_1490  and  CG_1491
REMARK  849  A    between atoms: CG_1491  and  CD_1492
REMARK  850  A    between atoms: CD_1492  and  CE_1493
REMARK  851  A    between atoms: CE_1493  and  NZ_1494
REMARK  852  A    between atoms: N_1495  and  CA_1496
REMARK  853  A    between atoms: CA_1496  and  C_1497
REMARK  854  A    between atoms: CA_1496  and  CB_1499
REMARK  855  A    between atoms: CB_1499  and  CG2_1500
REMARK  856  A    between atoms: CB_1499  and  CG1_1501
REMARK  857  A    between atoms: N_1502  and  CA_1503
REMARK  858  A    between atoms: CA_1503  and  C_1504
REMARK  859  A    between atoms: CA_1503  and  CB_1506
REMARK  860  A    between atoms: CB_1506  and  CG_1507
REMARK  861  A    between atoms: N_1510  and  CA_1511
REMARK  862  A    between atoms: CA_1511  and  C_1512
REMARK  863  A    between atoms: CA_1511  and  CB_1514
REMARK  864  A    between atoms: CB_1514  and  CG_1515
REMARK  865  A    between atoms: CG_1515  and  CD2_1516
REMARK  866  A    between atoms: CG_1515  and  CD1_1517
REMARK  867  A    between atoms: N_1518  and  CA_1519
REMARK  868  A    between atoms: CA_1519  and  C_1520
REMARK  869  A    between atoms: CA_1519  and  CB_1522
REMARK  870  A    between atoms: CB_1522  and  CG_1523
REMARK  871  A    between atoms: N_1532  and  CA_1533
REMARK  872  A    between atoms: CA_1533  and  C_1534
REMARK  873  A    between atoms: CA_1533  and  CB_1536
REMARK  874  A    between atoms: CB_1536  and  OG_1537
REMARK  875  A    between atoms: N_1538  and  CA_1539
REMARK  876  A    between atoms: CA_1539  and  C_1540
REMARK  877  A    between atoms: CA_1539  and  CB_1542
REMARK  878  A    between atoms: CB_1542  and  CG_1543
REMARK  879  A    between atoms: CG_1543  and  CD2_1544
REMARK  880  A    between atoms: CG_1543  and  CD1_1545
REMARK  881  A    between atoms: N_1546  and  CA_1547
REMARK  882  A    between atoms: CA_1547  and  C_1548
REMARK  883  A    between atoms: N_1550  and  CA_1551
REMARK  884  A    between atoms: CA_1551  and  C_1552
REMARK  885  A    between atoms: CA_1551  and  CB_1554
REMARK  886  A    between atoms: CB_1554  and  CG2_1555
REMARK  887  A    between atoms: CB_1554  and  CG1_1556
REMARK  888  A    between atoms: N_1557  and  CA_1558
REMARK  889  A    between atoms: CA_1558  and  C_1559
REMARK  890  A    between atoms: CA_1558  and  CB_1561
REMARK  891  A    between atoms: CB_1561  and  CG_1562
REMARK  892  A    between atoms: CG_1562  and  CD1_1563
REMARK  893  A    between atoms: CG_1562  and  CD2_1564
REMARK  894  A    between atoms: N_1565  and  CA_1566
REMARK  895  A    between atoms: CA_1566  and  C_1567
REMARK  896  A    between atoms: CA_1566  and  CB_1569
REMARK  897  A    between atoms: CB_1569  and  SG_1570
REMARK  898  A    between atoms: N_1571  and  CA_1572
REMARK  899  A    between atoms: CA_1572  and  C_1573
REMARK  900  A    between atoms: CA_1572  and  CB_1575
REMARK  901  A    between atoms: CB_1575  and  CG_1576
REMARK  902  A    between atoms: CZ_1581  and  OH_1582
REMARK  903  A    between atoms: N_1583  and  CA_1584
REMARK  904  A    between atoms: CA_1584  and  C_1585
REMARK  905  A    between atoms: CA_1584  and  CB_1587
REMARK  906  A    between atoms: CB_1587  and  CG_1588
REMARK  907  A    between atoms: CG_1588  and  CD_1589
REMARK  908  A    between atoms: N_1592  and  CA_1593
REMARK  909  A    between atoms: CA_1593  and  C_1594
REMARK  910  A    between atoms: CA_1593  and  CB_1596
REMARK  911  A    between atoms: CB_1596  and  CG_1597
REMARK  912  A    between atoms: N_1603  and  CA_1604
REMARK  913  A    between atoms: CA_1604  and  C_1605
REMARK  914  A    between atoms: CA_1604  and  CB_1607
REMARK  915  A    between atoms: CB_1607  and  CG_1608
REMARK  916  A    between atoms: CG_1608  and  CD1_1609
REMARK  917  A    between atoms: CG_1608  and  CD2_1610
REMARK  918  A    between atoms: N_1611  and  CA_1612
REMARK  919  A    between atoms: CA_1612  and  C_1613
REMARK  920  A    between atoms: CA_1612  and  CB_1615
REMARK  921  A    between atoms: CB_1615  and  CG2_1616
REMARK  922  A    between atoms: CB_1615  and  CG1_1617
REMARK  923  A    between atoms: N_1618  and  CA_1619
REMARK  924  A    between atoms: CA_1619  and  C_1620
REMARK  925  A    between atoms: N_1622  and  C_1623
REMARK  926  A    between atoms: C_1623  and  C_1624
REMARK  927  A    between atoms: C_1623  and  C_1626
REMARK  928  A    between atoms: C_1626  and  C_1627
REMARK  929  A    between atoms: C_1627  and  C_1628
REMARK  930  A    between atoms: CA_1630  and  C_1631
REMARK  931  A    between atoms: CA_1637  and  C_1638
REMARK  932  A    between atoms: N_1643  and  CA_1644
REMARK  933  A    between atoms: CA_1644  and  C_1645
REMARK  934  A    between atoms: CA_1644  and  CB_1647
REMARK  935  A    between atoms: CB_1647  and  CG_1648
REMARK  936  A    between atoms: N_1654  and  CA_1655
REMARK  937  A    between atoms: CA_1655  and  C_1656
REMARK  938  A    between atoms: CA_1655  and  CB_1658
REMARK  939  A    between atoms: CB_1658  and  CG_1659
REMARK  940  A    between atoms: CG_1659  and  CD_1660
REMARK  941  A    between atoms: N_1663  and  CA_1664
REMARK  942  A    between atoms: CA_1664  and  C_1665
REMARK  943  A    between atoms: CA_1664  and  CB_1667
REMARK  944  A    between atoms: N_1668  and  CA_1669
REMARK  945  A    between atoms: CA_1669  and  C_1670
REMARK  946  A    between atoms: CA_1669  and  CB_1672
REMARK  947  A    between atoms: CB_1672  and  CG_1673
REMARK  948  A    between atoms: N_1676  and  CA_1677
REMARK  949  A    between atoms: CA_1677  and  C_1678
REMARK  950  A    between atoms: CA_1677  and  CB_1680
REMARK  951  A    between atoms: CB_1680  and  OG1_1681
REMARK  952  A    between atoms: CB_1680  and  CG2_1682
REMARK  953  A    between atoms: N_1683  and  CA_1684
REMARK  954  A    between atoms: CA_1684  and  C_1685
REMARK  955  A    between atoms: CA_1684  and  CB_1687
REMARK  956  A    between atoms: CB_1687  and  CG_1688
REMARK  957  A    between atoms: CZ_1693  and  OH_1694
REMARK  958  A    between atoms: N_1695  and  CA_1696
REMARK  959  A    between atoms: CA_1696  and  C_1697
REMARK  960  A    between atoms: CA_1696  and  CB_1699
REMARK  961  A    between atoms: CB_1699  and  CG_1700
REMARK  962  A    between atoms: CG_1700  and  CD_1701
REMARK  963  A    between atoms: N_1704  and  CA_1705
REMARK  964  A    between atoms: CA_1705  and  C_1706
REMARK  965  A    between atoms: CA_1705  and  CB_1708
REMARK  966  A    between atoms: CB_1708  and  CG_1709
REMARK  967  A    between atoms: CG_1709  and  CD_1710
REMARK  968  A    between atoms: N_1713  and  CA_1714
REMARK  969  A    between atoms: CA_1714  and  C_1715
REMARK  970  A    between atoms: CA_1714  and  CB_1717
REMARK  971  A    between atoms: CB_1717  and  OG1_1718
REMARK  972  A    between atoms: CB_1717  and  CG2_1719
REMARK  973  A    between atoms: N_1720  and  CA_1721
REMARK  974  A    between atoms: CA_1721  and  C_1722
REMARK  975  A    between atoms: CA_1721  and  CB_1724
REMARK  976  A    between atoms: CB_1724  and  CG_1725
REMARK  977  A    between atoms: CZ_1730  and  OH_1731
REMARK  978  A    between atoms: N_1732  and  CA_1733
REMARK  979  A    between atoms: CA_1733  and  C_1734
REMARK  980  A    between atoms: CA_1733  and  CB_1736
REMARK  981  A    between atoms: CB_1736  and  SG_1737
REMARK  982  A    between atoms: N_1738  and  C_1739
REMARK  983  A    between atoms: C_1739  and  C_1740
REMARK  984  A    between atoms: C_1739  and  C_1742
REMARK  985  A    between atoms: C_1742  and  C_1743
REMARK  986  A    between atoms: C_1743  and  C_1744
REMARK  987  A    between atoms: C_1744  and  N_1745
REMARK  988  A    between atoms: N_1746  and  CA_1747
REMARK  989  A    between atoms: CA_1747  and  C_1748
REMARK  990  A    between atoms: CA_1747  and  CB_1750
REMARK  991  A    between atoms: CB_1750  and  CG1_1751
REMARK  992  A    between atoms: CB_1750  and  CG2_1752
REMARK  993  A    between atoms: CG1_1751  and  CD1_1753
REMARK  994  A    between atoms: N_1754  and  C_1755
REMARK  995  A    between atoms: C_1755  and  C_1756
REMARK  996  A    between atoms: C_1755  and  C_1758
REMARK  997  A    between atoms: C_1758  and  O_1759
REMARK  998  A    between atoms: N_1760  and  C_1761
REMARK  999  A    between atoms: C_1761  and  C_1762
REMARK  1000  A    between atoms: C_1761  and  C_1764
REMARK  1001  A    between atoms: C_1764  and  C_1765
REMARK  1002  A    between atoms: C_1765  and  C_1766
REMARK  1003  A    between atoms: C_1766  and  N_1767
REMARK  1004  A    between atoms: N_1771  and  C_1772
REMARK  1005  A    between atoms: C_1772  and  C_1773
REMARK  1006  A    between atoms: C_1772  and  C_1775
REMARK  1007  A    between atoms: C_1775  and  C_1776
REMARK  1008  A    between atoms: C_1775  and  C_1777
REMARK  1009  A    between atoms: N_1778  and  C_1779
REMARK  1010  A    between atoms: C_1779  and  C_1780
REMARK  1011  A    between atoms: C_1779  and  C_1782
REMARK  1012  A    between atoms: C_1782  and  C_1783
REMARK  1013  A    between atoms: C_1783  and  C_1784
REMARK  1014  A    between atoms: N_1787  and  C_1788
REMARK  1015  A    between atoms: C_1788  and  C_1789
REMARK  1016  A    between atoms: C_1788  and  C_1791
REMARK  1017  A    between atoms: C_1791  and  C_1792
REMARK  1018  A    between atoms: N_1798  and  C_1799
REMARK  1019  A    between atoms: C_1799  and  C_1800
REMARK  1020  A    between atoms: C_1799  and  C_1802
REMARK  1021  A    between atoms: C_1802  and  O_1803
REMARK  1022  A    between atoms: C_1802  and  C_1804
REMARK  1023  A    between atoms: N_1805  and  C_1806
REMARK  1024  A    between atoms: C_1806  and  C_1807
REMARK  1025  A    between atoms: C_1806  and  C_1809
REMARK  1026  A    between atoms: C_1809  and  C_1810
REMARK  1027  A    between atoms: C_1817  and  C_1818
REMARK  1028  A    between atoms: N_1823  and  C_1824
REMARK  1029  A    between atoms: C_1824  and  C_1825
REMARK  1030  A    between atoms: C_1824  and  C_1827
REMARK  1031  A    between atoms: C_1827  and  C_1828
REMARK  1032  A    between atoms: N_1831  and  C_1832
REMARK  1033  A    between atoms: C_1832  and  C_1833
REMARK  1034  A    between atoms: C_1832  and  C_1835
REMARK  1035  A    between atoms: C_1835  and  C_1836
REMARK  1036  A    between atoms: N_1842  and  C_1843
REMARK  1037  A    between atoms: C_1843  and  C_1844
REMARK  1038  A    between atoms: C_1843  and  C_1846
REMARK  1039  A    between atoms: C_1846  and  C_1847
REMARK  1040  A    between atoms: C_1846  and  C_1848
REMARK  1041  A    between atoms: N_1849  and  C_1850
REMARK  1042  A    between atoms: C_1850  and  C_1851
REMARK  1043  A    between atoms: C_1850  and  C_1853
REMARK  1044  A    between atoms: C_1853  and  O_1854
REMARK  1045  A    between atoms: C_1853  and  C_1855
REMARK  1046  A    between atoms: N_1856  and  C_1857
REMARK  1047  A    between atoms: C_1858  and  C_1859
REMARK  1048  A    between atoms: C_1858  and  C_1861
REMARK  1049  A    between atoms: C_1862  and  C_1863
REMARK  1050  A    between atoms: C_1862  and  C_1864
REMARK  1051  A    between atoms: C_1863  and  C_1865
REMARK  1052  A    between atoms: N_1871  and  C_1872
REMARK  1053  A    between atoms: C_1872  and  C_1873
REMARK  1054  A    between atoms: N_1875  and  CA_1876
REMARK  1055  A    between atoms: CA_1876  and  C_1877
REMARK  1056  A    between atoms: CA_1876  and  CB_1879
REMARK  1057  A    between atoms: N_1880  and  CA_1881
REMARK  1058  A    between atoms: CA_1881  and  C_1882
REMARK  1059  A    between atoms: CA_1881  and  CB_1884
REMARK  1060  A    between atoms: CB_1884  and  CG_1885
REMARK  1061  A    between atoms: CG_1885  and  CD_1886
REMARK  1062  A    between atoms: CD_1886  and  NE_1887
REMARK  1063  A    between atoms: N_1891  and  CA_1892
REMARK  1064  A    between atoms: CA_1892  and  C_1893
REMARK  1065  A    between atoms: CA_1892  and  CB_1895
REMARK  1066  A    between atoms: CB_1895  and  CG_1896
REMARK  1067  A    between atoms: N_1899  and  CA_1900
REMARK  1068  A    between atoms: CA_1900  and  C_1901
REMARK  1069  A    between atoms: CA_1900  and  CB_1903
REMARK  1070  A    between atoms: CB_1903  and  CG_1904
REMARK  1071  A    between atoms: CG_1904  and  CD1_1905
REMARK  1072  A    between atoms: CG_1904  and  CD2_1906
REMARK  1073  A    between atoms: N_1907  and  CA_1908
REMARK  1074  A    between atoms: CA_1908  and  C_1909
REMARK  1075  A    between atoms: CA_1908  and  CB_1911
REMARK  1076  A    between atoms: CB_1911  and  CG1_1912
REMARK  1077  A    between atoms: CB_1911  and  CG2_1913
REMARK  1078  A    between atoms: CG1_1912  and  CD1_1914
REMARK  1079  A    between atoms: N_1915  and  CA_1916
REMARK  1080  A    between atoms: CA_1916  and  C_1917
REMARK  1081  A    between atoms: CA_1916  and  CB_1919
REMARK  1082  A    between atoms: CB_1919  and  OG_1920
REMARK  1083  A    between atoms: N_1921  and  CA_1922
REMARK  1084  A    between atoms: CA_1922  and  C_1923
REMARK  1085  A    between atoms: CA_1922  and  CB_1925
REMARK  1086  A    between atoms: CB_1925  and  CG_1926
REMARK  1087  A    between atoms: CG_1926  and  CD_1927
REMARK  1088  A    between atoms: CD_1927  and  NE_1928
REMARK  1089  A    between atoms: N_1932  and  CA_1933
REMARK  1090  A    between atoms: CA_1933  and  C_1934
REMARK  1091  A    between atoms: CA_1933  and  CB_1936
REMARK  1092  A    between atoms: CB_1936  and  CG_1937
REMARK  1093  A    between atoms: CG_1937  and  CD2_1938
REMARK  1094  A    between atoms: CG_1937  and  CD1_1939
REMARK  1095  A    between atoms: N_1940  and  CA_1941
REMARK  1096  A    between atoms: CA_1941  and  C_1942
REMARK  1097  A    between atoms: CA_1941  and  CB_1944
REMARK  1098  A    between atoms: CB_1944  and  CG_1945
REMARK  1099  A    between atoms: CG_1945  and  CD2_1946
REMARK  1100  A    between atoms: CG_1945  and  CD1_1947
REMARK  1101  A    between atoms: N_1948  and  CA_1949
REMARK  1102  A    between atoms: CA_1949  and  C_1950
REMARK  1103  A    between atoms: CA_1949  and  CB_1952
REMARK  1104  A    between atoms: CB_1952  and  CG_1953
REMARK  1105  A    between atoms: CG_1953  and  CD_1954
REMARK  1106  A    between atoms: CD_1954  and  CE_1955
REMARK  1107  A    between atoms: CE_1955  and  NZ_1956
REMARK  1108  A    between atoms: N_1957  and  CA_1958
REMARK  1109  A    between atoms: CA_1958  and  C_1959
REMARK  1110  A    between atoms: CA_1958  and  CB_1961
REMARK  1111  A    between atoms: CB_1961  and  CG_1962
REMARK  1112  A    between atoms: N_1967  and  CA_1968
REMARK  1113  A    between atoms: CA_1968  and  C_1969
REMARK  1114  A    between atoms: CA_1968  and  CB_1971
REMARK  1115  A    between atoms: CB_1971  and  CG_1972
REMARK  1116  A    between atoms: CA_1976  and  C_1977
REMARK  1117  A    between atoms: N_1982  and  C_1983
REMARK  1118  A    between atoms: C_1983  and  C_1984
REMARK  1119  A    between atoms: C_1983  and  C_1986
REMARK  1120  A    between atoms: C_1986  and  O_1987
REMARK  1121  A    between atoms: N_1988  and  C_1989
REMARK  1122  A    between atoms: C_1989  and  C_1990
REMARK  1123  A    between atoms: C_1989  and  C_1992
REMARK  1124  A    between atoms: C_1992  and  C_1993
REMARK  1125  A    between atoms: C_1993  and  C_1994
REMARK  1126  A    between atoms: N_1997  and  C_1998
REMARK  1127  A    between atoms: C_1998  and  C_1999
REMARK  1128  A    between atoms: C_1998  and  C_2001
REMARK  1129  A    between atoms: C_2001  and  C_2002
REMARK  1130  A    between atoms: C_2002  and  C_2003
REMARK  1131  A    between atoms: C_2003  and  N_2004
REMARK  1132  A    between atoms: C_2009  and  C_2010
REMARK  1133  A    between atoms: N_2015  and  C_2017
REMARK  1134  A    between atoms: C_2016  and  C_2018
REMARK  1135  A    between atoms: C_2016  and  C_2021
REMARK  1136  A    between atoms: C_2021  and  C_2022
REMARK  1137  A    between atoms: C_2022  and  C_2023
REMARK  1138  A    between atoms: C_2023  and  S_2024
REMARK  1139  A    between atoms: C_2023  and  S_2025
REMARK  1140  A    between atoms: S_2024  and  C_2026
REMARK  1141  A    between atoms: S_2025  and  C_2027
REMARK  1142  A    between atoms: N_2028  and  CA_2029
REMARK  1143  A    between atoms: CA_2029  and  C_2030
REMARK  1144  A    between atoms: CA_2029  and  CB_2032
REMARK  1145  A    between atoms: CB_2032  and  CG_2033
REMARK  1146  A    between atoms: CG_2033  and  CD1_2034
REMARK  1147  A    between atoms: CG_2033  and  CD2_2035
REMARK  1148  A    between atoms: N_2036  and  CA_2037
REMARK  1149  A    between atoms: CA_2037  and  C_2038
REMARK  1150  A    between atoms: CA_2037  and  CB_2040
REMARK  1151  A    between atoms: N_2041  and  CA_2042
REMARK  1152  A    between atoms: CA_2042  and  C_2043
REMARK  1153  A    between atoms: CA_2042  and  CB_2045
REMARK  1154  A    between atoms: CB_2045  and  CG_2046
REMARK  1155  A    between atoms: CG_2046  and  CD_2047
REMARK  1156  A    between atoms: N_2050  and  CA_2051
REMARK  1157  A    between atoms: CA_2051  and  C_2052
REMARK  1158  A    between atoms: CA_2051  and  CB_2054
REMARK  1159  A    between atoms: CB_2054  and  CG2_2055
REMARK  1160  A    between atoms: CB_2054  and  CG1_2056
REMARK  1161  A    between atoms: N_2057  and  CA_2058
REMARK  1162  A    between atoms: CA_2058  and  C_2059
REMARK  1163  A    between atoms: CA_2058  and  CB_2061
REMARK  1164  A    between atoms: CB_2061  and  CG_2062
REMARK  1165  A    between atoms: CG_2062  and  CD1_2063
REMARK  1166  A    between atoms: CG_2062  and  CD2_2064
REMARK  1167  A    between atoms: N_2065  and  CA_2066
REMARK  1168  A    between atoms: CA_2066  and  C_2067
REMARK  1169  A    between atoms: CA_2066  and  CB_2069
REMARK  1170  A    between atoms: CB_2069  and  CG_2070
REMARK  1171  A    between atoms: CG_2070  and  CD_2071
REMARK  1172  A    between atoms: N_2074  and  CA_2075
REMARK  1173  A    between atoms: CA_2075  and  C_2076
REMARK  1174  A    between atoms: CA_2075  and  CB_2078
REMARK  1175  A    between atoms: CB_2078  and  CG_2079
REMARK  1176  A    between atoms: CA_2085  and  C_2086
REMARK  1177  A    between atoms: N_2091  and  CA_2092
REMARK  1178  A    between atoms: CA_2092  and  C_2093
REMARK  1179  A    between atoms: CA_2092  and  CB_2095
REMARK  1180  A    between atoms: CB_2095  and  CG_2096
REMARK  1181  A    between atoms: N_2105  and  CA_2106
REMARK  1182  A    between atoms: CA_2106  and  C_2107
REMARK  1183  A    between atoms: CA_2106  and  CB_2109
REMARK  1184  A    between atoms: CB_2109  and  CG1_2110
REMARK  1185  A    between atoms: CB_2109  and  CG2_2111
REMARK  1186  A    between atoms: CG1_2110  and  CD1_2112
REMARK  1187  A    between atoms: N_2113  and  CA_2114
REMARK  1188  A    between atoms: CA_2114  and  C_2115
REMARK  1189  A    between atoms: CA_2114  and  CB_2117
REMARK  1190  A    between atoms: CB_2117  and  OG1_2118
REMARK  1191  A    between atoms: CB_2117  and  CG2_2119
REMARK  1192  A    between atoms: N_2120  and  CA_2121
REMARK  1193  A    between atoms: CA_2121  and  C_2122
REMARK  1194  A    between atoms: CA_2121  and  CB_2124
REMARK  1195  A    between atoms: N_2125  and  CA_2126
REMARK  1196  A    between atoms: CA_2126  and  C_2127
REMARK  1197  A    between atoms: CA_2126  and  CB_2129
REMARK  1198  A    between atoms: CB_2129  and  CG_2130
REMARK  1199  A    between atoms: N_2133  and  CA_2134
REMARK  1200  A    between atoms: CA_2134  and  C_2135
REMARK  1201  A    between atoms: CA_2134  and  CB_2137
REMARK  1202  A    between atoms: CB_2137  and  OG_2138
REMARK  1203  A    between atoms: N_2139  and  CA_2140
REMARK  1204  A    between atoms: CA_2140  and  C_2141
REMARK  1205  A    between atoms: CA_2140  and  CB_2143
REMARK  1206  A    between atoms: CB_2143  and  OG_2144
REMARK  1207  A    between atoms: N_2145  and  C_2146
REMARK  1208  A    between atoms: C_2146  and  C_2147
REMARK  1209  A    between atoms: C_2146  and  C_2149
REMARK  1210  A    between atoms: C_2149  and  C_2150
REMARK  1211  A    between atoms: N_2151  and  CA_2152
REMARK  1212  A    between atoms: CA_2152  and  C_2153
REMARK  1213  A    between atoms: CA_2152  and  CB_2155
REMARK  1214  A    between atoms: CB_2155  and  OG_2156
REMARK  1215  A    between atoms: N_2157  and  CA_2158
REMARK  1216  A    between atoms: CA_2158  and  C_2159
REMARK  1217  A    between atoms: CA_2158  and  CB_2161
REMARK  1218  A    between atoms: CB_2161  and  CG_2162
REMARK  1219  A    between atoms: CG_2162  and  CD_2163
REMARK  1220  A    between atoms: CA_2167  and  C_2168
REMARK  1221  A    between atoms: CA_2174  and  C_2175
REMARK  1222  A    between atoms: N_2180  and  CA_2181
REMARK  1223  A    between atoms: CA_2181  and  C_2182
REMARK  1224  A    between atoms: CA_2181  and  CB_2184
REMARK  1225  A    between atoms: CB_2184  and  OG_2185
REMARK  1226  A    between atoms: N_2186  and  CA_2187
REMARK  1227  A    between atoms: CA_2187  and  C_2188
REMARK  1228  A    between atoms: CA_2187  and  CB_2190
REMARK  1229  A    between atoms: CB_2190  and  CG_2191
REMARK  1230  A    between atoms: N_2200  and  CA_2201
REMARK  1231  A    between atoms: CA_2201  and  C_2202
REMARK  1232  A    between atoms: CA_2201  and  CB_2204
REMARK  1233  A    between atoms: CB_2204  and  CG2_2205
REMARK  1234  A    between atoms: CB_2204  and  CG1_2206
REMARK  1235  A    between atoms: N_2207  and  CA_2208
REMARK  1236  A    between atoms: CA_2208  and  C_2209
REMARK  1237  A    between atoms: CA_2208  and  CB_2211
REMARK  1238  A    between atoms: CB_2211  and  OG1_2212
REMARK  1239  A    between atoms: CB_2211  and  CG2_2213
REMARK  1240  A    between atoms: N_2214  and  CA_2215
REMARK  1241  A    between atoms: CA_2215  and  C_2216
REMARK  1242  A    between atoms: CA_2215  and  CB_2218
REMARK  1243  A    between atoms: CB_2218  and  CG_2219
REMARK  1244  A    between atoms: CG_2219  and  CD_2220
REMARK  1245  A    between atoms: N_2223  and  CA_2224
REMARK  1246  A    between atoms: CA_2224  and  C_2225
REMARK  1247  A    between atoms: CA_2224  and  CB_2227
REMARK  1248  A    between atoms: CB_2227  and  CG_2228
REMARK  1249  A    between atoms: CG_2228  and  SD_2229
REMARK  1250  A    between atoms: SD_2229  and  CE_2230
REMARK  1251  A    between atoms: N_2231  and  CA_2232
REMARK  1252  A    between atoms: CA_2232  and  C_2233
REMARK  1253  A    between atoms: CA_2232  and  CB_2235
REMARK  1254  A    between atoms: CB_2235  and  CG_2236
REMARK  1255  A    between atoms: CG_2236  and  CD1_2237
REMARK  1256  A    between atoms: CG_2236  and  CD2_2238
REMARK  1257  A    between atoms: N_2239  and  CA_2240
REMARK  1258  A    between atoms: CA_2240  and  C_2241
REMARK  1259  A    between atoms: CA_2240  and  CB_2243
REMARK  1260  A    between atoms: CB_2243  and  CG_2244
REMARK  1261  A    between atoms: CG_2244  and  CD1_2245
REMARK  1262  A    between atoms: CG_2244  and  CD2_2246
REMARK  1263  A    between atoms: N_2247  and  CA_2248
REMARK  1264  A    between atoms: CA_2248  and  C_2249
REMARK  1265  A    between atoms: CA_2248  and  CB_2251
REMARK  1266  A    between atoms: CB_2251  and  CG_2252
REMARK  1267  A    between atoms: CG_2252  and  CD_2253
REMARK  1268  A    between atoms: N_2256  and  CA_2257
REMARK  1269  A    between atoms: CA_2257  and  C_2258
REMARK  1270  A    between atoms: CA_2257  and  CB_2260
REMARK  1271  A    between atoms: CB_2260  and  CG_2261
REMARK  1272  A    between atoms: CG_2261  and  CD_2262
REMARK  1273  A    between atoms: CD_2262  and  CE_2263
REMARK  1274  A    between atoms: CE_2263  and  NZ_2264
REMARK  1275  A    between atoms: N_2265  and  C_2266
REMARK  1276  A    between atoms: C_2266  and  C_2267
REMARK  1277  A    between atoms: C_2266  and  C_2269
REMARK  1278  A    between atoms: C_2269  and  C_2270
REMARK  1279  A    between atoms: N_2271  and  CA_2272
REMARK  1280  A    between atoms: CA_2272  and  C_2273
REMARK  1281  A    between atoms: CA_2272  and  CB_2275
REMARK  1282  A    between atoms: CB_2275  and  CG_2276
REMARK  1283  A    between atoms: CG_2276  and  CD2_2277
REMARK  1284  A    between atoms: CG_2276  and  CD1_2278
REMARK  1285  A    between atoms: N_2279  and  CA_2280
REMARK  1286  A    between atoms: CA_2280  and  C_2281
REMARK  1287  A    between atoms: CA_2280  and  CB_2283
REMARK  1288  A    between atoms: CB_2283  and  CG_2284
REMARK  1289  A    between atoms: N_2293  and  CA_2294
REMARK  1290  A    between atoms: CA_2294  and  C_2295
REMARK                            x       y       z     vdW  Elec       q    Type
REMARK                         _______ _______ _______ _____ _____    ______ ____
ROOT
ATOM      1  C   HIS O   7     -47.757  57.334   7.650  0.00  0.00    +0.241 C 
ATOM      2  O   HIS O   7     -46.530  57.367   7.792  0.00  0.00    -0.273 OA
ATOM      3  N   PRO O   8     -48.540  58.227   8.249  0.00  0.00    -0.265 N 
ATOM      4  CA  PRO O   8     -47.910  59.335   8.986  0.00  0.00    +0.170 C 
ATOM      5  CB  PRO O   8     -49.090  60.223   9.409  0.00  0.00    +0.060 C 
ATOM      6  CG  PRO O   8     -50.324  59.489   9.074  0.00  0.00    -0.009 C 
ATOM      7  CD  PRO O   8     -50.012  58.290   8.248  0.00  0.00    +0.074 C 
ENDROOT
BRANCH   4   8
ATOM      8  C   PRO O   8     -47.090  58.868  10.177  0.00  0.00    +0.235 C 
ATOM      9  O   PRO O   8     -46.131  59.554  10.554  0.00  0.00    -0.274 OA
ATOM     10  N   TRP O   9     -47.431  57.725  10.777  0.00  0.00    -0.302 N 
ATOM     11  H   TRP O   9     -48.242  57.244  10.494  0.00  0.00    +0.150 HD
BRANCH  10  12
ATOM     12  CA  TRP O   9     -46.603  57.188  11.852  0.00  0.00    +0.163 C 
BRANCH  12  13
ATOM     13  C   TRP O   9     -45.256  56.741  11.317  0.00  0.00    +0.234 C 
ATOM     14  O   TRP O   9     -44.224  56.934  11.966  0.00  0.00    -0.274 OA
ATOM     15  N   ILE O  10     -45.259  56.124  10.140  0.00  0.00    -0.302 N 
ATOM     16  H   ILE O  10     -46.111  55.988   9.666  0.00  0.00    +0.150 HD
BRANCH  15  17
ATOM     17  CA  ILE O  10     -44.022  55.647   9.543  0.00  0.00    +0.162 C 
BRANCH  17  18
ATOM     18  C   ILE O  10     -43.127  56.821   9.166  0.00  0.00    +0.234 C 
ATOM     19  O   ILE O  10     -41.935  56.844   9.493  0.00  0.00    -0.274 OA
ATOM     20  N   THR O  11     -43.688  57.822   8.490  0.00  0.00    -0.300 N 
ATOM     21  H   THR O  11     -44.657  57.821   8.315  0.00  0.00    +0.150 HD
BRANCH  20  22
ATOM     22  CA  THR O  11     -42.856  58.919   8.012  0.00  0.00    +0.187 C 
BRANCH  22  23
ATOM     23  C   THR O  11     -42.382  59.810   9.157  0.00  0.00    +0.236 C 
ATOM     24  O   THR O  11     -41.331  60.453   9.047  0.00  0.00    -0.274 OA
ATOM     25  N   ALA O  12     -43.126  59.856  10.263  0.00  0.00    -0.303 N 
ATOM     26  H   ALA O  12     -43.968  59.348  10.310  0.00  0.00    +0.149 HD
BRANCH  25  27
ATOM     27  CA  ALA O  12     -42.695  60.657  11.402  0.00  0.00    +0.156 C 
ATOM     28  CB  ALA O  12     -43.889  60.999  12.290  0.00  0.00    +0.038 C 
BRANCH  27  29
ATOM     29  C   ALA O  12     -41.621  59.976  12.244  0.00  0.00    +0.234 C 
ATOM     30  O   ALA O  12     -40.915  60.658  12.993  0.00  0.00    -0.274 OA
ATOM     31  N   ASN O  13     -41.484  58.656  12.151  0.00  0.00    -0.302 N 
ATOM     32  H   ASN O  13     -42.015  58.164  11.484  0.00  0.00    +0.150 HD
BRANCH  31  33
ATOM     33  CA  ASN O  13     -40.570  57.923  13.010  0.00  0.00    +0.168 C 
BRANCH  33  34
ATOM     34  C   ASN O  13     -39.432  57.222  12.286  0.00  0.00    +0.234 C 
ATOM     35  O   ASN O  13     -38.402  56.968  12.916  0.00  0.00    -0.274 OA
ATOM     36  N   SER O  14     -39.570  56.926  10.995  0.00  0.00    -0.301 N 
ATOM     37  H   SER O  14     -40.389  57.194  10.520  0.00  0.00    +0.150 HD
BRANCH  36  38
ATOM     38  CA  SER O  14     -38.525  56.211  10.278  0.00  0.00    +0.184 C 
BRANCH  38  39
ATOM     39  C   SER O  14     -37.346  57.125   9.977  0.00  0.00    +0.236 C 
ATOM     40  O   SER O  14     -37.516  58.297   9.624  0.00  0.00    -0.274 OA
ATOM     41  N   SER O  15     -36.136  56.594  10.135  0.00  0.00    -0.300 N 
ATOM     42  H   SER O  15     -36.032  55.706  10.548  0.00  0.00    +0.150 HD
BRANCH  41  43
ATOM     43  CA  SER O  15     -34.967  57.341   9.690  0.00  0.00    +0.184 C 
BRANCH  43  44
ATOM     44  C   SER O  15     -34.649  57.081   8.225  0.00  0.00    +0.236 C 
ATOM     45  O   SER O  15     -33.792  57.769   7.660  0.00  0.00    -0.274 OA
ATOM     46  N   UNK O  16     -35.347  56.133   7.601  0.00  0.00    -0.304 N 
ATOM     47  H   UNK O  16     -36.101  55.723   8.084  0.00  0.00    +0.149 HD
BRANCH  46  48
ATOM     48  C   UNK O  16     -35.066  55.662   6.247  0.00  0.00    +0.136 C 
BRANCH  48  49
ATOM     49  C   UNK O  16     -35.312  54.150   6.157  0.00  0.00    +0.026 C 
ATOM     50  C   UNK O  16     -34.052  53.293   6.048  0.00  0.00    +0.006 C 
ENDBRANCH  48  49
BRANCH  48  51
ATOM     51  C   UNK O  16     -35.918  56.391   5.205  0.00  0.00    +0.245 C 
ATOM     52  O   UNK O  16     -37.132  56.182   5.121  0.00  0.00    -0.299 OA
ENDBRANCH  48  51
ENDBRANCH  46  48
ENDBRANCH  43  44
BRANCH  43  53
ATOM     53  CB  SER O  15     -33.742  57.004  10.550  0.00  0.00    +0.187 C 
BRANCH  53  54
ATOM     54  OG  SER O  15     -33.743  55.657  10.970  0.00  0.00    -0.393 OA
ATOM     55  H   SER O  15     -34.529  55.488  11.513  0.00  0.00    +0.209 HD
ENDBRANCH  53  54
ENDBRANCH  43  53
ENDBRANCH  41  43
ENDBRANCH  38  39
BRANCH  38  56
ATOM     56  CB  SER O  14     -39.081  55.628   8.978  0.00  0.00    +0.187 C 
BRANCH  56  57
ATOM     57  OG  SER O  14     -38.050  55.066   8.181  0.00  0.00    -0.393 OA
ATOM     58  H   SER O  14     -37.620  54.346   8.669  0.00  0.00    +0.209 HD
ENDBRANCH  56  57
ENDBRANCH  38  56
ENDBRANCH  36  38
ENDBRANCH  33  34
BRANCH  33  59
ATOM     59  CB  ASN O  13     -41.347  56.893  13.839  0.00  0.00    +0.127 C 
BRANCH  59  60
ATOM     60  CG  ASN O  13     -42.200  57.557  14.893  0.00  0.00    +0.213 C 
ATOM     61  OD1 ASN O  13     -43.428  57.544  14.817  0.00  0.00    -0.276 OA
ATOM     62  ND2 ASN O  13     -41.551  58.170  15.870  0.00  0.00    -0.329 N 
ATOM     63  H   ASN O  13     -40.567  58.155  15.892  0.00  0.00    +0.145 HD
ATOM     64  H   ASN O  13     -42.052  58.641  16.575  0.00  0.00    +0.145 HD
ENDBRANCH  59  60
ENDBRANCH  33  59
ENDBRANCH  31  33
ENDBRANCH  27  29
ENDBRANCH  25  27
ENDBRANCH  22  23
BRANCH  22  65
ATOM     65  CB  THR O  11     -43.622  59.738   6.973  0.00  0.00    +0.141 C 
ATOM     66  CG2 THR O  11     -44.002  58.874   5.791  0.00  0.00    +0.040 C 
BRANCH  65  67
ATOM     67  OG1 THR O  11     -44.813  60.254   7.567  0.00  0.00    -0.390 OA
ATOM     68  H   THR O  11     -45.370  59.518   7.867  0.00  0.00    +0.210 HD
ENDBRANCH  65  67
ENDBRANCH  22  65
ENDBRANCH  20  22
ENDBRANCH  17  18
BRANCH  17  69
ATOM     69  CB  ILE O  10     -44.340  54.754   8.332  0.00  0.00    +0.015 C 
ATOM     70  CG2 ILE O  10     -43.086  54.474   7.540  0.00  0.00    +0.010 C 
BRANCH  69  71
ATOM     71  CG1 ILE O  10     -44.983  53.446   8.798  0.00  0.00    +0.002 C 
ATOM     72  CD1 ILE O  10     -43.989  52.500   9.471  0.00  0.00    +0.004 C 
ENDBRANCH  69  71
ENDBRANCH  17  69
ENDBRANCH  15  17
ENDBRANCH  12  13
BRANCH  12  73
ATOM     73  CB  TRP O   9     -47.301  56.012  12.540  0.00  0.00    +0.065 C 
BRANCH  73  74
ATOM     74  CG  TRP O   9     -46.514  55.440  13.701  0.00  0.00    -0.037 C 
ATOM     75  CD1 TRP O   9     -46.414  55.966  14.960  0.00  0.00    +0.173 C 
ATOM     76  CD2 TRP O   9     -45.706  54.245  13.702  0.00  0.00    +0.001 A 
ATOM     77  NE1 TRP O   9     -45.611  55.171  15.741  0.00  0.00    -0.279 NA
ATOM     78  CE2 TRP O   9     -45.157  54.114  14.995  0.00  0.00    +0.066 A 
ATOM     79  CE3 TRP O   9     -45.408  53.269  12.739  0.00  0.00    +0.010 A 
ATOM     80  CZ2 TRP O   9     -44.318  53.052  15.353  0.00  0.00    +0.028 A 
ATOM     81  CZ3 TRP O   9     -44.568  52.204  13.099  0.00  0.00    +0.001 A 
ATOM     82  CH2 TRP O   9     -44.043  52.106  14.396  0.00  0.00    +0.002 A 
ENDBRANCH  73  74
ENDBRANCH  12  73
ENDBRANCH  10  12
ENDBRANCH   4   8
BRANCH   1  83
ATOM     83  CA  HIS O   7     -48.401  56.255   6.780  0.00  0.00    +0.165 C 
BRANCH  83  86
ATOM     84  C   GLU O   6     -47.465  57.104   4.701  0.00  0.00    +0.234 C 
ATOM     85  O   GLU O   6     -47.867  58.253   4.944  0.00  0.00    -0.274 OA
ATOM     86  N   HIS O   7     -47.651  56.087   5.542  0.00  0.00    -0.302 N 
ATOM     87  H   HIS O   7     -47.274  55.204   5.322  0.00  0.00    +0.150 HD
BRANCH  84  88
ATOM     88  CA  GLU O   6     -46.746  56.832   3.380  0.00  0.00    +0.159 C 
BRANCH  88  91
ATOM     89  C   LEU O   5     -44.976  55.119   3.504  0.00  0.00    +0.234 C 
ATOM     90  O   LEU O   5     -44.143  55.934   3.918  0.00  0.00    -0.274 OA
ATOM     91  N   GLU O   6     -46.243  55.461   3.246  0.00  0.00    -0.302 N 
ATOM     92  H   GLU O   6     -46.868  54.759   2.952  0.00  0.00    +0.150 HD
BRANCH  89  93
ATOM     93  CA  LEU O   5     -44.562  53.661   3.310  0.00  0.00    +0.159 C 
BRANCH  93  96
ATOM     94  C   VAL O   4     -46.399  52.685   4.549  0.00  0.00    +0.234 C 
ATOM     95  O   VAL O   4     -46.138  53.400   5.524  0.00  0.00    -0.274 OA
ATOM     96  N   LEU O   5     -45.688  52.745   3.418  0.00  0.00    -0.302 N 
ATOM     97  H   LEU O   5     -45.927  52.168   2.657  0.00  0.00    +0.150 HD
BRANCH  94  98
ATOM     98  CA  VAL O   4     -47.549  51.688   4.589  0.00  0.00    +0.161 C 
BRANCH  98 101
ATOM     99  C   GLU O   3     -49.065  52.999   3.228  0.00  0.00    +0.234 C 
ATOM    100  O   GLU O   3     -49.104  53.891   4.085  0.00  0.00    -0.274 OA
ATOM    101  N   VAL O   4     -48.405  51.856   3.417  0.00  0.00    -0.302 N 
ATOM    102  H   VAL O   4     -48.495  51.124   2.765  0.00  0.00    +0.150 HD
BRANCH  99 103
ATOM    103  CA  GLU O   3     -49.787  53.186   1.900  0.00  0.00    +0.159 C 
BRANCH 103 106
ATOM    104  C   ALA O   2     -47.930  52.970   0.355  0.00  0.00    +0.234 C 
ATOM    105  O   ALA O   2     -47.393  53.975   0.838  0.00  0.00    -0.274 OA
ATOM    106  N   GLU O   3     -49.096  52.500   0.811  0.00  0.00    -0.302 N 
ATOM    107  H   GLU O   3     -49.489  51.690   0.412  0.00  0.00    +0.150 HD
BRANCH 104 108
ATOM    108  CA  ALA O   2     -47.267  52.213  -0.792  0.00  0.00    +0.156 C 
ATOM    109  CB  ALA O   2     -47.818  52.685  -2.138  0.00  0.00    +0.038 C 
BRANCH 108 112
ATOM    110  C   LEU O   1     -47.043  50.155   0.465  0.00  0.00    +0.234 C 
ATOM    111  O   LEU O   1     -46.407  50.744   1.347  0.00  0.00    -0.274 OA
ATOM    112  N   ALA O   2     -47.452  50.770  -0.649  0.00  0.00    -0.303 N 
ATOM    113  H   ALA O   2     -47.877  50.253  -1.371  0.00  0.00    +0.149 HD
BRANCH 110 114
ATOM    114  CA  LEU O   1     -47.399  48.683   0.635  0.00  0.00    +0.159 C 
BRANCH 114 117
ATOM    115  C   UNK O   0     -49.783  48.948   0.530  0.00  0.00    +0.214 C 
ATOM    116  O   UNK O   0     -49.741  49.741   1.474  0.00  0.00    -0.276 OA
ATOM    117  N   LEU O   1     -48.691  48.373   0.032  0.00  0.00    -0.304 N 
ATOM    118  H   LEU O   1     -48.754  47.751  -0.728  0.00  0.00    +0.149 HD
BRANCH 115 119
ATOM    119  C   UNK O   0     -51.101  48.574  -0.140  0.00  0.00    +0.096 C 
BRANCH 119 120
ATOM    120  C   UNK O   0     -51.294  49.307  -1.447  0.00  0.00    +0.011 C 
BRANCH 120 121
ATOM    121  C   UNK O   0     -52.678  49.313  -2.055  0.00  0.00    +0.025 C 
BRANCH 121 122
ATOM    122  C   UNK O   0     -52.486  48.835  -2.285  0.00  0.00    +0.103 C 
BRANCH 122 123
ATOM    123  S   UNK O   0     -52.299  47.152  -2.921  0.00  0.00    -0.150 S 
ATOM    124  C   UNK O   0     -51.504  47.477  -4.492  0.00  0.00    +0.085 C 
ENDBRANCH 122 123
BRANCH 122 125
ATOM    125  S   UNK O   0     -52.857  50.452  -3.439  0.00  0.00    -0.150 S 
ATOM    126  C   UNK O   0     -54.599  50.260  -3.857  0.00  0.00    +0.085 C 
ENDBRANCH 122 125
ENDBRANCH 121 122
ENDBRANCH 120 121
ENDBRANCH 119 120
ENDBRANCH 115 119
ENDBRANCH 114 117
BRANCH 114 127
ATOM    127  CB  LEU O   1     -46.305  47.792   0.044  0.00  0.00    +0.034 C 
BRANCH 127 128
ATOM    128  CG  LEU O   1     -46.335  46.322   0.467  0.00  0.00    -0.015 C 
ATOM    129  CD1 LEU O   1     -45.594  45.470  -0.555  0.00  0.00    +0.007 C 
ATOM    130  CD2 LEU O   1     -45.724  46.149   1.861  0.00  0.00    +0.007 C 
ENDBRANCH 127 128
ENDBRANCH 114 127
ENDBRANCH 110 114
ENDBRANCH 108 112
ENDBRANCH 104 108
ENDBRANCH 103 106
BRANCH 103 131
ATOM    131  CB  GLU O   3     -51.233  52.700   2.013  0.00  0.00    +0.037 C 
BRANCH 131 132
ATOM    132  CG  GLU O   3     -52.070  52.861   0.745  0.00  0.00    +0.054 C 
BRANCH 132 133
ATOM    133  CD  GLU O   3     -53.524  52.480   0.975  0.00  0.00    +0.042 C 
ATOM    134  OE1 GLU O   3     -53.847  51.274   0.889  0.00  0.00    -0.550 OA
ATOM    135  OE2 GLU O   3     -54.344  53.389   1.240  0.00  0.00    -0.550 OA
ENDBRANCH 132 133
ENDBRANCH 131 132
ENDBRANCH 103 131
ENDBRANCH  99 103
ENDBRANCH  98 101
BRANCH  98 136
ATOM    136  CB  VAL O   4     -47.033  50.242   4.678  0.00  0.00    +0.012 C 
ATOM    137  CG2 VAL O   4     -46.149  50.080   5.896  0.00  0.00    +0.009 C 
ATOM    138  CG1 VAL O   4     -48.207  49.278   4.747  0.00  0.00    +0.009 C 
ENDBRANCH  98 136
ENDBRANCH  94  98
ENDBRANCH  93  96
BRANCH  93 139
ATOM    139  CB  LEU O   5     -43.872  53.463   1.959  0.00  0.00    +0.034 C 
BRANCH 139 140
ATOM    140  CG  LEU O   5     -43.218  52.077   1.840  0.00  0.00    -0.015 C 
ATOM    141  CD1 LEU O   5     -43.009  51.704   0.379  0.00  0.00    +0.007 C 
ATOM    142  CD2 LEU O   5     -41.900  52.073   2.594  0.00  0.00    +0.007 C 
ENDBRANCH 139 140
ENDBRANCH  93 139
ENDBRANCH  89  93
ENDBRANCH  88  91
BRANCH  88 143
ATOM    143  CB  GLU O   6     -47.704  57.159   2.231  0.00  0.00    +0.037 C 
BRANCH 143 144
ATOM    144  CG  GLU O   6     -47.045  57.459   0.909  0.00  0.00    +0.054 C 
BRANCH 144 145
ATOM    145  CD  GLU O   6     -48.044  57.444  -0.235  0.00  0.00    +0.042 C 
ATOM    146  OE1 GLU O   6     -47.660  57.822  -1.365  0.00  0.00    -0.550 OA
ATOM    147  OE2 GLU O   6     -49.206  57.031  -0.002  0.00  0.00    -0.550 OA
ENDBRANCH 144 145
ENDBRANCH 143 144
ENDBRANCH  88 143
ENDBRANCH  84  88
ENDBRANCH  83  86
BRANCH  83 148
ATOM    148  CB  HIS O   7     -48.453  54.923   7.536  0.00  0.00    +0.086 C 
BRANCH 148 149
ATOM    149  CG  HIS O   7     -49.466  54.896   8.636  0.00  0.00    +0.038 A 
ATOM    150  ND1 HIS O   7     -49.244  55.474   9.867  0.00  0.00    -0.348 N 
ATOM    151  CD2 HIS O   7     -50.724  54.394   8.680  0.00  0.00    +0.133 A 
ATOM    152  CE1 HIS O   7     -50.314  55.314  10.626  0.00  0.00    +0.196 A 
ATOM    153  NE2 HIS O   7     -51.227  54.664   9.928  0.00  0.00    -0.244 NA
ATOM    154  H   HIS O   7     -48.417  55.934  10.139  0.00  0.00    +0.166 HD
ENDBRANCH 148 149
ENDBRANCH  83 148
ENDBRANCH   1  83
TORSDOF 63
REMARK  Name = /Users/wangyang/Desktop/Breast_cancer_brain_metastasis/wang_Gene/AIDD/15_Protein_ligand_docking/data_7ztl/protein.pdb
REMARK  1290 active torsions:
REMARK  status: ('A' for Active; 'I' for Inactive)
REMARK    1  A    between atoms: N_1  and  CA_2
REMARK    2  A    between atoms: CA_2  and  C_3
REMARK    3  A    between atoms: N_5  and  CA_6
REMARK    4  A    between atoms: CA_6  and  C_7
REMARK    5  A    between atoms: CA_6  and  CB_9
REMARK    6  A    between atoms: N_10  and  CA_11
REMARK    7  A    between atoms: CA_11  and  C_12
REMARK    8  A    between atoms: CA_11  and  CB_14
REMARK    9  A    between atoms: CB_14  and  CG_15
REMARK   10  A    between atoms: N_24  and  CA_25
REMARK   11  A    between atoms: CA_25  and  C_26
REMARK   12  A    between atoms: CA_25  and  CB_28
REMARK   13  A    between atoms: N_29  and  CA_30
REMARK   14  A    between atoms: CA_30  and  C_31
REMARK   15  A    between atoms: CA_30  and  CB_33
REMARK   16  A    between atoms: CB_33  and  CG_34
REMARK   17  A    between atoms: CG_34  and  CD1_35
REMARK   18  A    between atoms: CG_34  and  CD2_36
REMARK   19  A    between atoms: N_37  and  CA_38
REMARK   20  A    between atoms: CA_38  and  C_39
REMARK   21  A    between atoms: CA_38  and  CB_41
REMARK   22  A    between atoms: CB_41  and  CG_42
REMARK   23  A    between atoms: CG_42  and  CD_43
REMARK   24  A    between atoms: N_46  and  CA_47
REMARK   25  A    between atoms: CA_47  and  C_48
REMARK   26  A    between atoms: CA_47  and  CB_50
REMARK   27  A    between atoms: CB_50  and  CG_51
REMARK   28  A    between atoms: N_54  and  CA_55
REMARK   29  A    between atoms: CA_55  and  C_56
REMARK   30  A    between atoms: CA_55  and  CB_58
REMARK   31  A    between atoms: CB_58  and  CG_59
REMARK   32  A    between atoms: N_65  and  CA_66
REMARK   33  A    between atoms: CA_66  and  C_67
REMARK   34  A    between atoms: CA_66  and  CB_69
REMARK   35  A    between atoms: CB_69  and  CG_70
REMARK   36  A    between atoms: CG_70  and  CD_71
REMARK   37  A    between atoms: N_74  and  CA_75
REMARK   38  A    between atoms: CA_75  and  C_76
REMARK   39  A    between atoms: CA_75  and  CB_78
REMARK   40  A    between atoms: CB_78  and  CG1_79
REMARK   41  A    between atoms: CB_78  and  CG2_80
REMARK   42  A    between atoms: CG1_79  and  CD1_81
REMARK   43  A    between atoms: N_82  and  CA_83
REMARK   44  A    between atoms: CA_83  and  C_84
REMARK   45  A    between atoms: N_86  and  CA_87
REMARK   46  A    between atoms: CA_87  and  C_88
REMARK   47  A    between atoms: CA_87  and  CB_90
REMARK   48  A    between atoms: CB_90  and  CG_91
REMARK   49  A    between atoms: CG_91  and  CD_92
REMARK   50  A    between atoms: CD_92  and  NE_93
REMARK   51  A    between atoms: CA_98  and  C_99
REMARK   52  A    between atoms: N_104  and  CA_105
REMARK   53  A    between atoms: CA_105  and  C_106
REMARK   54  A    between atoms: CA_105  and  CB_108
REMARK   55  A    between atoms: CB_108  and  CG_109
REMARK   56  A    between atoms: CG_109  and  CD1_110
REMARK   57  A    between atoms: CG_109  and  CD2_111
REMARK   58  A    between atoms: N_112  and  CA_113
REMARK   59  A    between atoms: CA_113  and  C_114
REMARK   60  A    between atoms: N_116  and  C_117
REMARK   61  A    between atoms: C_117  and  C_118
REMARK   62  A    between atoms: C_117  and  C_120
REMARK   63  A    between atoms: C_120  and  C_121
REMARK   64  A    between atoms: C_121  and  C_122
REMARK   65  A    between atoms: N_123  and  CA_124
REMARK   66  A    between atoms: CA_124  and  C_125
REMARK   67  A    between atoms: N_127  and  CA_128
REMARK   68  A    between atoms: CA_128  and  C_129
REMARK   69  A    between atoms: CA_128  and  CB_131
REMARK   70  A    between atoms: CB_131  and  CG_132
REMARK   71  A    between atoms: CG_132  and  CD_133
REMARK   72  A    between atoms: CD_133  and  CE_134
REMARK   73  A    between atoms: CE_134  and  NZ_135
REMARK   74  A    between atoms: N_136  and  CA_137
REMARK   75  A    between atoms: CA_137  and  C_138
REMARK   76  A    between atoms: CA_137  and  CB_140
REMARK   77  A    between atoms: CB_140  and  CG_141
REMARK   78  A    between atoms: N_147  and  CA_148
REMARK   79  A    between atoms: CA_148  and  C_149
REMARK   80  A    between atoms: N_151  and  CA_152
REMARK   81  A    between atoms: CA_152  and  C_153
REMARK   82  A    between atoms: CA_152  and  CB_155
REMARK   83  A    between atoms: CB_155  and  CG_156
REMARK   84  A    between atoms: N_159  and  CA_160
REMARK   85  A    between atoms: CA_160  and  C_161
REMARK   86  A    between atoms: CA_160  and  CB_163
REMARK   87  A    between atoms: CB_163  and  CG1_164
REMARK   88  A    between atoms: CB_163  and  CG2_165
REMARK   89  A    between atoms: N_166  and  CA_167
REMARK   90  A    between atoms: CA_167  and  C_168
REMARK   91  A    between atoms: CA_167  and  CB_170
REMARK   92  A    between atoms: CB_170  and  CG_171
REMARK   93  A    between atoms: CZ_176  and  OH_177
REMARK   94  A    between atoms: N_178  and  CA_179
REMARK   95  A    between atoms: CA_179  and  C_180
REMARK   96  A    between atoms: CA_179  and  CB_182
REMARK   97  A    between atoms: CB_182  and  CG_183
REMARK   98  A    between atoms: CG_183  and  CD1_184
REMARK   99  A    between atoms: CG_183  and  CD2_185
REMARK  100  A    between atoms: N_186  and  CA_187
REMARK  101  A    between atoms: CA_187  and  C_188
REMARK  102  A    between atoms: CA_187  and  CB_190
REMARK  103  A    between atoms: N_191  and  CA_192
REMARK  104  A    between atoms: CA_192  and  C_193
REMARK  105  A    between atoms: CA_192  and  CB_195
REMARK  106  A    between atoms: CB_195  and  CG_196
REMARK  107  A    between atoms: CG_196  and  CD_197
REMARK  108  A    between atoms: CD_197  and  NE_198
REMARK  109  A    between atoms: N_202  and  CA_203
REMARK  110  A    between atoms: CA_203  and  C_204
REMARK  111  A    between atoms: CA_203  and  CB_206
REMARK  112  A    between atoms: CB_206  and  CG_207
REMARK  113  A    between atoms: CG_207  and  CD_208
REMARK  114  A    between atoms: N_211  and  CA_212
REMARK  115  A    between atoms: CA_212  and  C_213
REMARK  116  A    between atoms: CA_212  and  CB_215
REMARK  117  A    between atoms: CB_215  and  CG_216
REMARK  118  A    between atoms: CG_216  and  CD_217
REMARK  119  A    between atoms: CD_217  and  CE_218
REMARK  120  A    between atoms: CE_218  and  NZ_219
REMARK  121  A    between atoms: N_220  and  CA_221
REMARK  122  A    between atoms: CA_221  and  C_222
REMARK  123  A    between atoms: CA_221  and  CB_224
REMARK  124  A    between atoms: N_225  and  CA_226
REMARK  125  A    between atoms: CA_226  and  C_227
REMARK  126  A    between atoms: CA_226  and  CB_229
REMARK  127  A    between atoms: CB_229  and  OG_230
REMARK  128  A    between atoms: N_231  and  CA_232
REMARK  129  A    between atoms: CA_232  and  C_233
REMARK  130  A    between atoms: CA_232  and  CB_235
REMARK  131  A    between atoms: CB_235  and  CG_236
REMARK  132  A    between atoms: CG_236  and  CD_237
REMARK  133  A    between atoms: CD_237  and  CE_238
REMARK  134  A    between atoms: CE_238  and  NZ_239
REMARK  135  A    between atoms: N_240  and  CA_241
REMARK  136  A    between atoms: CA_241  and  C_242
REMARK  137  A    between atoms: CA_241  and  CB_244
REMARK  138  A    between atoms: CB_244  and  CG_245
REMARK  139  A    between atoms: N_251  and  CA_252
REMARK  140  A    between atoms: CA_252  and  C_253
REMARK  141  A    between atoms: CA_252  and  CB_255
REMARK  142  A    between atoms: CB_255  and  CG1_256
REMARK  143  A    between atoms: CB_255  and  CG2_257
REMARK  144  A    between atoms: CG1_256  and  CD1_258
REMARK  145  A    between atoms: N_259  and  CA_260
REMARK  146  A    between atoms: CA_260  and  C_261
REMARK  147  A    between atoms: CA_260  and  CB_263
REMARK  148  A    between atoms: CB_263  and  CG_264
REMARK  149  A    between atoms: CG_264  and  CD1_265
REMARK  150  A    between atoms: CG_264  and  CD2_266
REMARK  151  A    between atoms: N_267  and  CA_268
REMARK  152  A    between atoms: CA_268  and  C_269
REMARK  153  A    between atoms: CA_268  and  CB_271
REMARK  154  A    between atoms: N_272  and  CA_273
REMARK  155  A    between atoms: CA_273  and  C_274
REMARK  156  A    between atoms: CA_273  and  CB_276
REMARK  157  A    between atoms: CB_276  and  CG_277
REMARK  158  A    between atoms: CG_277  and  CD2_278
REMARK  159  A    between atoms: CG_277  and  CD1_279
REMARK  160  A    between atoms: N_280  and  CA_281
REMARK  161  A    between atoms: CA_281  and  C_282
REMARK  162  A    between atoms: CA_281  and  CB_284
REMARK  163  A    between atoms: CB_284  and  CG_285
REMARK  164  A    between atoms: CG_285  and  CD_286
REMARK  165  A    between atoms: CD_286  and  CE_287
REMARK  166  A    between atoms: CE_287  and  NZ_288
REMARK  167  A    between atoms: N_289  and  CA_290
REMARK  168  A    between atoms: CA_290  and  C_291
REMARK  169  A    between atoms: CA_290  and  CB_293
REMARK  170  A    between atoms: CB_293  and  CG2_294
REMARK  171  A    between atoms: CB_293  and  CG1_295
REMARK  172  A    between atoms: N_296  and  CA_297
REMARK  173  A    between atoms: CA_297  and  C_298
REMARK  174  A    between atoms: CA_297  and  CB_300
REMARK  175  A    between atoms: CB_300  and  CG_301
REMARK  176  A    between atoms: CG_301  and  CD1_302
REMARK  177  A    between atoms: CG_301  and  CD2_303
REMARK  178  A    between atoms: N_304  and  CA_305
REMARK  179  A    between atoms: CA_305  and  C_306
REMARK  180  A    between atoms: CA_305  and  CB_308
REMARK  181  A    between atoms: CB_308  and  CG_309
REMARK  182  A    between atoms: N_315  and  CA_316
REMARK  183  A    between atoms: CA_316  and  C_317
REMARK  184  A    between atoms: CA_316  and  CB_319
REMARK  185  A    between atoms: CB_319  and  CG_320
REMARK  186  A    between atoms: CG_320  and  CD_321
REMARK  187  A    between atoms: CD_321  and  CE_322
REMARK  188  A    between atoms: CE_322  and  NZ_323
REMARK  189  A    between atoms: N_324  and  CA_325
REMARK  190  A    between atoms: CA_325  and  C_326
REMARK  191  A    between atoms: CA_325  and  CB_328
REMARK  192  A    between atoms: N_329  and  CA_330
REMARK  193  A    between atoms: CA_330  and  C_331
REMARK  194  A    between atoms: CA_330  and  CB_333
REMARK  195  A    between atoms: CB_333  and  CG_334
REMARK  196  A    between atoms: CG_334  and  CD_335
REMARK  197  A    between atoms: N_338  and  CA_339
REMARK  198  A    between atoms: CA_339  and  C_340
REMARK  199  A    between atoms: CA_339  and  CB_342
REMARK  200  A    between atoms: CB_342  and  CG_343
REMARK  201  A    between atoms: CG_343  and  CD1_344
REMARK  202  A    between atoms: CG_343  and  CD2_345
REMARK  203  A    between atoms: N_346  and  CA_347
REMARK  204  A    between atoms: CA_347  and  C_348
REMARK  205  A    between atoms: CA_347  and  CB_350
REMARK  206  A    between atoms: CB_350  and  CG_351
REMARK  207  A    between atoms: CG_351  and  CD_352
REMARK  208  A    between atoms: N_355  and  C_356
REMARK  209  A    between atoms: C_356  and  C_357
REMARK  210  A    between atoms: C_356  and  C_359
REMARK  211  A    between atoms: C_359  and  C_360
REMARK  212  A    between atoms: N_361  and  CA_362
REMARK  213  A    between atoms: CA_362  and  C_363
REMARK  214  A    between atoms: CA_362  and  CB_365
REMARK  215  A    between atoms: N_366  and  CA_367
REMARK  216  A    between atoms: CA_367  and  C_368
REMARK  217  A    between atoms: N_370  and  CA_371
REMARK  218  A    between atoms: CA_371  and  C_372
REMARK  219  A    between atoms: CA_371  and  CB_374
REMARK  220  A    between atoms: CB_374  and  CG2_375
REMARK  221  A    between atoms: CB_374  and  CG1_376
REMARK  222  A    between atoms: N_377  and  CA_378
REMARK  223  A    between atoms: CA_378  and  C_379
REMARK  224  A    between atoms: CA_378  and  CB_381
REMARK  225  A    between atoms: CB_381  and  CG_382
REMARK  226  A    between atoms: CG_382  and  CD_383
REMARK  227  A    between atoms: N_386  and  CA_387
REMARK  228  A    between atoms: CA_387  and  C_388
REMARK  229  A    between atoms: CA_387  and  CB_390
REMARK  230  A    between atoms: CB_390  and  CG_391
REMARK  231  A    between atoms: N_396  and  CA_397
REMARK  232  A    between atoms: CA_397  and  C_398
REMARK  233  A    between atoms: CA_397  and  CB_400
REMARK  234  A    between atoms: CB_400  and  CG_401
REMARK  235  A    between atoms: CG_401  and  CD_402
REMARK  236  A    between atoms: N_405  and  CA_406
REMARK  237  A    between atoms: CA_406  and  C_407
REMARK  238  A    between atoms: CA_406  and  CB_409
REMARK  239  A    between atoms: CB_409  and  CG_410
REMARK  240  A    between atoms: CG_410  and  CD2_411
REMARK  241  A    between atoms: CG_410  and  CD1_412
REMARK  242  A    between atoms: N_413  and  CA_414
REMARK  243  A    between atoms: CA_414  and  C_415
REMARK  244  A    between atoms: CA_414  and  CB_417
REMARK  245  A    between atoms: CB_417  and  CG_418
REMARK  246  A    between atoms: CG_418  and  CD_419
REMARK  247  A    between atoms: CD_419  and  NE_420
REMARK  248  A    between atoms: N_424  and  CA_425
REMARK  249  A    between atoms: CA_425  and  C_426
REMARK  250  A    between atoms: CA_425  and  CB_428
REMARK  251  A    between atoms: CB_428  and  CG_429
REMARK  252  A    between atoms: CG_429  and  CD_430
REMARK  253  A    between atoms: CD_430  and  NE_431
REMARK  254  A    between atoms: N_435  and  CA_436
REMARK  255  A    between atoms: CA_436  and  C_437
REMARK  256  A    between atoms: CA_436  and  CB_439
REMARK  257  A    between atoms: CB_439  and  CG_440
REMARK  258  A    between atoms: CG_440  and  CD_441
REMARK  259  A    between atoms: N_444  and  CA_445
REMARK  260  A    between atoms: CA_445  and  C_446
REMARK  261  A    between atoms: CA_445  and  CB_448
REMARK  262  A    between atoms: CB_448  and  CG1_449
REMARK  263  A    between atoms: CB_448  and  CG2_450
REMARK  264  A    between atoms: N_451  and  C_452
REMARK  265  A    between atoms: C_452  and  C_453
REMARK  266  A    between atoms: C_452  and  C_455
REMARK  267  A    between atoms: C_455  and  C_456
REMARK  268  A    between atoms: N_457  and  CA_458
REMARK  269  A    between atoms: CA_458  and  C_459
REMARK  270  A    between atoms: CA_458  and  CB_461
REMARK  271  A    between atoms: CB_461  and  CG1_462
REMARK  272  A    between atoms: CB_461  and  CG2_463
REMARK  273  A    between atoms: CG1_462  and  CD1_464
REMARK  274  A    between atoms: N_465  and  CA_466
REMARK  275  A    between atoms: CA_466  and  C_467
REMARK  276  A    between atoms: CA_466  and  CB_469
REMARK  277  A    between atoms: CB_469  and  CG_470
REMARK  278  A    between atoms: CG_470  and  CD_471
REMARK  279  A    between atoms: N_474  and  C_475
REMARK  280  A    between atoms: C_475  and  C_476
REMARK  281  A    between atoms: C_475  and  C_478
REMARK  282  A    between atoms: C_478  and  O_479
REMARK  283  A    between atoms: N_480  and  C_481
REMARK  284  A    between atoms: C_481  and  C_482
REMARK  285  A    between atoms: C_481  and  C_484
REMARK  286  A    between atoms: C_484  and  C_485
REMARK  287  A    between atoms: N_490  and  C_491
REMARK  288  A    between atoms: C_491  and  C_492
REMARK  289  A    between atoms: C_491  and  C_494
REMARK  290  A    between atoms: C_494  and  C_495
REMARK  291  A    between atoms: C_495  and  C_496
REMARK  292  A    between atoms: C_495  and  C_497
REMARK  293  A    between atoms: N_498  and  C_499
REMARK  294  A    between atoms: C_499  and  C_500
REMARK  295  A    between atoms: C_499  and  C_502
REMARK  296  A    between atoms: C_502  and  C_503
REMARK  297  A    between atoms: C_503  and  C_504
REMARK  298  A    between atoms: C_504  and  N_505
REMARK  299  A    between atoms: N_509  and  C_510
REMARK  300  A    between atoms: C_510  and  C_511
REMARK  301  A    between atoms: C_510  and  C_513
REMARK  302  A    between atoms: C_513  and  C_514
REMARK  303  A    between atoms: C_520  and  C_521
REMARK  304  A    between atoms: N_526  and  C_527
REMARK  305  A    between atoms: C_527  and  C_528
REMARK  306  A    between atoms: C_527  and  C_530
REMARK  307  A    between atoms: C_530  and  C_531
REMARK  308  A    between atoms: N_534  and  C_535
REMARK  309  A    between atoms: C_535  and  C_536
REMARK  310  A    between atoms: C_535  and  C_538
REMARK  311  A    between atoms: C_538  and  C_539
REMARK  312  A    between atoms: C_538  and  C_540
REMARK  313  A    between atoms: C_539  and  C_541
REMARK  314  A    between atoms: N_542  and  C_543
REMARK  315  A    between atoms: C_543  and  C_544
REMARK  316  A    between atoms: C_543  and  C_546
REMARK  317  A    between atoms: C_546  and  C_547
REMARK  318  A    between atoms: C_547  and  C_548
REMARK  319  A    between atoms: C_547  and  C_549
REMARK  320  A    between atoms: N_550  and  C_551
REMARK  321  A    between atoms: C_551  and  C_552
REMARK  322  A    between atoms: C_551  and  C_554
REMARK  323  A    between atoms: C_554  and  C_555
REMARK  324  A    between atoms: C_555  and  C_556
REMARK  325  A    between atoms: C_556  and  N_557
REMARK  326  A    between atoms: N_561  and  C_562
REMARK  327  A    between atoms: C_562  and  C_567
REMARK  328  A    between atoms: C_563  and  C_564
REMARK  329  A    between atoms: C_568  and  C_569
REMARK  330  A    between atoms: C_568  and  C_571
REMARK  331  A    between atoms: C_569  and  C_572
REMARK  332  A    between atoms: C_569  and  C_573
REMARK  333  A    between atoms: C_570  and  C_573
REMARK  334  A    between atoms: N_574  and  CA_575
REMARK  335  A    between atoms: CA_575  and  C_576
REMARK  336  A    between atoms: CA_575  and  CB_578
REMARK  337  A    between atoms: CB_578  and  CG_579
REMARK  338  A    between atoms: CZ_584  and  OH_585
REMARK  339  A    between atoms: N_586  and  CA_587
REMARK  340  A    between atoms: CA_587  and  C_588
REMARK  341  A    between atoms: N_590  and  CA_591
REMARK  342  A    between atoms: CA_591  and  C_592
REMARK  343  A    between atoms: CA_591  and  CB_594
REMARK  344  A    between atoms: CB_594  and  CG_595
REMARK  345  A    between atoms: CZ_600  and  OH_601
REMARK  346  A    between atoms: N_602  and  CA_603
REMARK  347  A    between atoms: CA_603  and  C_604
REMARK  348  A    between atoms: CA_603  and  CB_606
REMARK  349  A    between atoms: CB_606  and  CG_607
REMARK  350  A    between atoms: N_613  and  CA_614
REMARK  351  A    between atoms: CA_614  and  C_615
REMARK  352  A    between atoms: CA_614  and  CB_617
REMARK  353  A    between atoms: CB_617  and  CG_618
REMARK  354  A    between atoms: N_623  and  CA_624
REMARK  355  A    between atoms: CA_624  and  C_625
REMARK  356  A    between atoms: CA_624  and  CB_627
REMARK  357  A    between atoms: CB_627  and  CG_628
REMARK  358  A    between atoms: N_631  and  CA_632
REMARK  359  A    between atoms: CA_632  and  C_633
REMARK  360  A    between atoms: CA_632  and  CB_635
REMARK  361  A    between atoms: N_636  and  CA_637
REMARK  362  A    between atoms: CA_637  and  C_638
REMARK  363  A    between atoms: CA_637  and  CB_640
REMARK  364  A    between atoms: CB_640  and  OG1_641
REMARK  365  A    between atoms: CB_640  and  CG2_642
REMARK  366  A    between atoms: N_643  and  CA_644
REMARK  367  A    between atoms: CA_644  and  C_645
REMARK  368  A    between atoms: CA_644  and  CB_647
REMARK  369  A    between atoms: CB_647  and  CG_648
REMARK  370  A    between atoms: CG_648  and  CD_649
REMARK  371  A    between atoms: CD_649  and  NE_650
REMARK  372  A    between atoms: N_654  and  CA_655
REMARK  373  A    between atoms: CA_655  and  C_656
REMARK  374  A    between atoms: CA_655  and  CB_658
REMARK  375  A    between atoms: CB_658  and  CG1_659
REMARK  376  A    between atoms: CB_658  and  CG2_660
REMARK  377  A    between atoms: N_661  and  CA_662
REMARK  378  A    between atoms: CA_662  and  C_663
REMARK  379  A    between atoms: CA_662  and  CB_665
REMARK  380  A    between atoms: CB_665  and  CG_666
REMARK  381  A    between atoms: CZ_671  and  OH_672
REMARK  382  A    between atoms: N_673  and  CA_674
REMARK  383  A    between atoms: CA_674  and  C_675
REMARK  384  A    between atoms: CA_674  and  CB_677
REMARK  385  A    between atoms: CB_677  and  CG_678
REMARK  386  A    between atoms: CG_678  and  CD2_679
REMARK  387  A    between atoms: CG_678  and  CD1_680
REMARK  388  A    between atoms: N_681  and  CA_682
REMARK  389  A    between atoms: CA_682  and  C_683
REMARK  390  A    between atoms: CA_682  and  CB_685
REMARK  391  A    between atoms: CB_685  and  CG1_686
REMARK  392  A    between atoms: CB_685  and  CG2_687
REMARK  393  A    between atoms: CG1_686  and  CD1_688
REMARK  394  A    between atoms: N_689  and  CA_690
REMARK  395  A    between atoms: CA_690  and  C_691
REMARK  396  A    between atoms: CA_690  and  CB_693
REMARK  397  A    between atoms: CB_693  and  CG_694
REMARK  398  A    between atoms: CG_694  and  CD2_695
REMARK  399  A    between atoms: CG_694  and  CD1_696
REMARK  400  A    between atoms: N_697  and  CA_698
REMARK  401  A    between atoms: CA_698  and  C_699
REMARK  402  A    between atoms: CA_698  and  CB_701
REMARK  403  A    between atoms: CB_701  and  CG_702
REMARK  404  A    between atoms: CG_702  and  CD_703
REMARK  405  A    between atoms: N_706  and  CA_707
REMARK  406  A    between atoms: CA_707  and  C_708
REMARK  407  A    between atoms: CA_707  and  CB_710
REMARK  408  A    between atoms: CB_710  and  CG_711
REMARK  409  A    between atoms: CZ_716  and  OH_717
REMARK  410  A    between atoms: N_718  and  CA_719
REMARK  411  A    between atoms: CA_719  and  C_720
REMARK  412  A    between atoms: CA_719  and  CB_722
REMARK  413  A    between atoms: CA_724  and  C_725
REMARK  414  A    between atoms: N_730  and  CA_731
REMARK  415  A    between atoms: CA_731  and  C_732
REMARK  416  A    between atoms: CA_731  and  CB_734
REMARK  417  A    between atoms: CB_734  and  CG_735
REMARK  418  A    between atoms: CG_735  and  CD1_736
REMARK  419  A    between atoms: CG_735  and  CD2_737
REMARK  420  A    between atoms: N_738  and  CA_739
REMARK  421  A    between atoms: CA_739  and  C_740
REMARK  422  A    between atoms: N_742  and  CA_743
REMARK  423  A    between atoms: CA_743  and  C_744
REMARK  424  A    between atoms: CA_743  and  CB_746
REMARK  425  A    between atoms: CB_746  and  OG1_747
REMARK  426  A    between atoms: CB_746  and  CG2_748
REMARK  427  A    between atoms: N_749  and  CA_750
REMARK  428  A    between atoms: CA_750  and  C_751
REMARK  429  A    between atoms: CA_750  and  CB_753
REMARK  430  A    between atoms: CB_753  and  CG2_754
REMARK  431  A    between atoms: CB_753  and  CG1_755
REMARK  432  A    between atoms: N_756  and  CA_757
REMARK  433  A    between atoms: CA_757  and  C_758
REMARK  434  A    between atoms: CA_757  and  CB_760
REMARK  435  A    between atoms: CB_760  and  CG_761
REMARK  436  A    between atoms: CZ_766  and  OH_767
REMARK  437  A    between atoms: N_768  and  C_769
REMARK  438  A    between atoms: C_769  and  C_770
REMARK  439  A    between atoms: C_769  and  C_772
REMARK  440  A    between atoms: C_772  and  C_773
REMARK  441  A    between atoms: N_774  and  CA_775
REMARK  442  A    between atoms: CA_775  and  C_776
REMARK  443  A    between atoms: CA_775  and  CB_778
REMARK  444  A    between atoms: CB_778  and  CG_779
REMARK  445  A    between atoms: CG_779  and  CD_780
REMARK  446  A    between atoms: N_783  and  CA_784
REMARK  447  A    between atoms: CA_784  and  C_785
REMARK  448  A    between atoms: CA_784  and  CB_787
REMARK  449  A    between atoms: CB_787  and  CG_788
REMARK  450  A    between atoms: CG_788  and  CD2_789
REMARK  451  A    between atoms: CG_788  and  CD1_790
REMARK  452  A    between atoms: N_791  and  CA_792
REMARK  453  A    between atoms: CA_792  and  C_793
REMARK  454  A    between atoms: CA_792  and  CB_795
REMARK  455  A    between atoms: CB_795  and  CG_796
REMARK  456  A    between atoms: CG_796  and  CD_797
REMARK  457  A    between atoms: N_800  and  CA_801
REMARK  458  A    between atoms: CA_801  and  C_802
REMARK  459  A    between atoms: CA_801  and  CB_804
REMARK  460  A    between atoms: CB_804  and  CG_805
REMARK  461  A    between atoms: CG_805  and  CD_806
REMARK  462  A    between atoms: CD_806  and  CE_807
REMARK  463  A    between atoms: CE_807  and  NZ_808
REMARK  464  A    between atoms: N_809  and  CA_810
REMARK  465  A    between atoms: CA_810  and  C_811
REMARK  466  A    between atoms: CA_810  and  CB_813
REMARK  467  A    between atoms: CB_813  and  CG_814
REMARK  468  A    between atoms: CG_814  and  CD1_815
REMARK  469  A    between atoms: CG_814  and  CD2_816
REMARK  470  A    between atoms: N_817  and  CA_818
REMARK  471  A    between atoms: CA_818  and  C_819
REMARK  472  A    between atoms: CA_818  and  CB_821
REMARK  473  A    between atoms: CB_821  and  OG_822
REMARK  474  A    between atoms: N_823  and  CA_824
REMARK  475  A    between atoms: CA_824  and  C_825
REMARK  476  A    between atoms: CA_824  and  CB_827
REMARK  477  A    between atoms: CB_827  and  CG_828
REMARK  478  A    between atoms: CG_828  and  CD_829
REMARK  479  A    between atoms: CD_829  and  CE_830
REMARK  480  A    between atoms: CE_830  and  NZ_831
REMARK  481  A    between atoms: N_832  and  CA_833
REMARK  482  A    between atoms: CA_833  and  C_834
REMARK  483  A    between atoms: CA_833  and  CB_836
REMARK  484  A    between atoms: CB_836  and  CG_837
REMARK  485  A    between atoms: N_843  and  CA_844
REMARK  486  A    between atoms: CA_844  and  C_845
REMARK  487  A    between atoms: CA_844  and  CB_847
REMARK  488  A    between atoms: CB_847  and  CG_848
REMARK  489  A    between atoms: N_851  and  CA_852
REMARK  490  A    between atoms: CA_852  and  C_853
REMARK  491  A    between atoms: CA_852  and  CB_855
REMARK  492  A    between atoms: CB_855  and  CG_856
REMARK  493  A    between atoms: CG_856  and  CD_857
REMARK  494  A    between atoms: N_860  and  CA_861
REMARK  495  A    between atoms: CA_861  and  C_862
REMARK  496  A    between atoms: CA_861  and  CB_864
REMARK  497  A    between atoms: CB_864  and  CG_865
REMARK  498  A    between atoms: CG_865  and  CD_866
REMARK  499  A    between atoms: N_869  and  CA_870
REMARK  500  A    between atoms: CA_870  and  C_871
REMARK  501  A    between atoms: CA_870  and  CB_873
REMARK  502  A    between atoms: CB_873  and  CG_874
REMARK  503  A    between atoms: CG_874  and  CD_875
REMARK  504  A    between atoms: CD_875  and  NE_876
REMARK  505  A    between atoms: N_880  and  CA_881
REMARK  506  A    between atoms: CA_881  and  C_882
REMARK  507  A    between atoms: CA_881  and  CB_884
REMARK  508  A    between atoms: CB_884  and  OG1_885
REMARK  509  A    between atoms: CB_884  and  CG2_886
REMARK  510  A    between atoms: N_887  and  CA_888
REMARK  511  A    between atoms: CA_888  and  C_889
REMARK  512  A    between atoms: CA_888  and  CB_891
REMARK  513  A    between atoms: N_892  and  CA_893
REMARK  514  A    between atoms: CA_893  and  C_894
REMARK  515  A    between atoms: CA_893  and  CB_896
REMARK  516  A    between atoms: CB_896  and  OG1_897
REMARK  517  A    between atoms: CB_896  and  CG2_898
REMARK  518  A    between atoms: N_899  and  CA_900
REMARK  519  A    between atoms: CA_900  and  C_901
REMARK  520  A    between atoms: CA_900  and  CB_903
REMARK  521  A    between atoms: CB_903  and  CG_904
REMARK  522  A    between atoms: CZ_909  and  OH_910
REMARK  523  A    between atoms: N_911  and  CA_912
REMARK  524  A    between atoms: CA_912  and  C_913
REMARK  525  A    between atoms: CA_912  and  CB_915
REMARK  526  A    between atoms: CB_915  and  CG1_916
REMARK  527  A    between atoms: CB_915  and  CG2_917
REMARK  528  A    between atoms: CG1_916  and  CD1_918
REMARK  529  A    between atoms: N_919  and  CA_920
REMARK  530  A    between atoms: CA_920  and  C_921
REMARK  531  A    between atoms: CA_920  and  CB_923
REMARK  532  A    between atoms: CB_923  and  OG1_924
REMARK  533  A    between atoms: CB_923  and  CG2_925
REMARK  534  A    between atoms: N_926  and  CA_927
REMARK  535  A    between atoms: CA_927  and  C_928
REMARK  536  A    between atoms: CA_927  and  CB_930
REMARK  537  A    between atoms: CB_930  and  CG_931
REMARK  538  A    between atoms: CG_931  and  CD_932
REMARK  539  A    between atoms: N_935  and  CA_936
REMARK  540  A    between atoms: CA_936  and  C_937
REMARK  541  A    between atoms: CA_936  and  CB_939
REMARK  542  A    between atoms: CB_939  and  CG_940
REMARK  543  A    between atoms: CG_940  and  CD2_941
REMARK  544  A    between atoms: CG_940  and  CD1_942
REMARK  545  A    between atoms: N_943  and  CA_944
REMARK  546  A    between atoms: CA_944  and  C_945
REMARK  547  A    between atoms: CA_944  and  CB_947
REMARK  548  A    between atoms: N_948  and  CA_949
REMARK  549  A    between atoms: CA_949  and  C_950
REMARK  550  A    between atoms: CA_949  and  CB_952
REMARK  551  A    between atoms: CB_952  and  CG_953
REMARK  552  A    between atoms: N_956  and  CA_957
REMARK  553  A    between atoms: CA_957  and  C_958
REMARK  554  A    between atoms: CA_957  and  CB_960
REMARK  555  A    between atoms: N_961  and  CA_962
REMARK  556  A    between atoms: CA_962  and  C_963
REMARK  557  A    between atoms: CA_962  and  CB_965
REMARK  558  A    between atoms: CB_965  and  CG_966
REMARK  559  A    between atoms: CG_966  and  CD2_967
REMARK  560  A    between atoms: CG_966  and  CD1_968
REMARK  561  A    between atoms: N_969  and  CA_970
REMARK  562  A    between atoms: CA_970  and  C_971
REMARK  563  A    between atoms: CA_970  and  CB_973
REMARK  564  A    between atoms: CB_973  and  OG_974
REMARK  565  A    between atoms: N_975  and  CA_976
REMARK  566  A    between atoms: CA_976  and  C_977
REMARK  567  A    between atoms: CA_976  and  CB_979
REMARK  568  A    between atoms: CB_979  and  CG_980
REMARK  569  A    between atoms: CZ_985  and  OH_986
REMARK  570  A    between atoms: N_987  and  CA_988
REMARK  571  A    between atoms: CA_988  and  C_989
REMARK  572  A    between atoms: CA_988  and  CB_991
REMARK  573  A    between atoms: CB_991  and  SG_992
REMARK  574  A    between atoms: N_993  and  CA_994
REMARK  575  A    between atoms: CA_994  and  C_995
REMARK  576  A    between atoms: CA_994  and  CB_997
REMARK  577  A    between atoms: CB_997  and  CG_998
REMARK  578  A    between atoms: N_1003  and  C_1004
REMARK  579  A    between atoms: C_1004  and  C_1005
REMARK  580  A    between atoms: C_1004  and  C_1007
REMARK  581  A    between atoms: C_1007  and  O_1008
REMARK  582  A    between atoms: N_1009  and  C_1010
REMARK  583  A    between atoms: C_1010  and  C_1011
REMARK  584  A    between atoms: C_1010  and  C_1013
REMARK  585  A    between atoms: C_1013  and  C_1014
REMARK  586  A    between atoms: C_1014  and  C_1015
REMARK  587  A    between atoms: C_1015  and  C_1016
REMARK  588  A    between atoms: C_1016  and  N_1017
REMARK  589  A    between atoms: N_1018  and  C_1019
REMARK  590  A    between atoms: C_1020  and  C_1021
REMARK  591  A    between atoms: C_1020  and  C_1024
REMARK  592  A    between atoms: C_1023  and  C_1026
REMARK  593  A    between atoms: C_1025  and  C_1026
REMARK  594  A    between atoms: C_1027  and  N_1029
REMARK  595  A    between atoms: C_1028  and  N_1030
REMARK  596  A    between atoms: N_1037  and  C_1038
REMARK  597  A    between atoms: C_1038  and  C_1039
REMARK  598  A    between atoms: C_1038  and  C_1041
REMARK  599  A    between atoms: C_1041  and  C_1042
REMARK  600  A    between atoms: C_1041  and  C_1043
REMARK  601  A    between atoms: N_1044  and  C_1045
REMARK  602  A    between atoms: C_1045  and  C_1046
REMARK  603  A    between atoms: C_1045  and  C_1048
REMARK  604  A    between atoms: C_1048  and  C_1049
REMARK  605  A    between atoms: C_1048  and  C_1050
REMARK  606  A    between atoms: C_1049  and  C_1051
REMARK  607  A    between atoms: N_1052  and  C_1053
REMARK  608  A    between atoms: C_1053  and  C_1054
REMARK  609  A    between atoms: C_1053  and  C_1056
REMARK  610  A    between atoms: C_1056  and  C_1057
REMARK  611  A    between atoms: N_1062  and  C_1063
REMARK  612  A    between atoms: C_1063  and  C_1064
REMARK  613  A    between atoms: C_1063  and  C_1066
REMARK  614  A    between atoms: C_1066  and  C_1067
REMARK  615  A    between atoms: C_1067  and  C_1068
REMARK  616  A    between atoms: C_1068  and  N_1069
REMARK  617  A    between atoms: N_1073  and  C_1074
REMARK  618  A    between atoms: C_1074  and  C_1077
REMARK  619  A    between atoms: C_1077  and  C_1078
REMARK  620  A    between atoms: N_1081  and  C_1084
REMARK  621  A    between atoms: C_1083  and  C_1085
REMARK  622  A    between atoms: C_1085  and  C_1086
REMARK  623  A    between atoms: C_1085  and  O_1087
REMARK  624  A    between atoms: C_1085  and  N_1097
REMARK  625  A    between atoms: C_1089  and  C_1094
REMARK  626  A    between atoms: C_1090  and  C_1091
REMARK  627  A    between atoms: C_1093  and  C_1094
REMARK  628  A    between atoms: C_1098  and  C_1099
REMARK  629  A    between atoms: C_1098  and  C_1101
REMARK  630  A    between atoms: C_1101  and  C_1102
REMARK  631  A    between atoms: C_1102  and  C_1103
REMARK  632  A    between atoms: C_1103  and  C_1104
REMARK  633  A    between atoms: C_1104  and  N_1105
REMARK  634  A    between atoms: C_1107  and  C_1108
REMARK  635  A    between atoms: N_1113  and  CA_1114
REMARK  636  A    between atoms: CA_1114  and  C_1115
REMARK  637  A    between atoms: CA_1114  and  CB_1117
REMARK  638  A    between atoms: CB_1117  and  CG_1118
REMARK  639  A    between atoms: CG_1118  and  CD_1119
REMARK  640  A    between atoms: N_1122  and  CA_1123
REMARK  641  A    between atoms: CA_1123  and  C_1124
REMARK  642  A    between atoms: CA_1123  and  CB_1126
REMARK  643  A    between atoms: CB_1126  and  CG_1127
REMARK  644  A    between atoms: N_1130  and  CA_1131
REMARK  645  A    between atoms: CA_1131  and  C_1132
REMARK  646  A    between atoms: CA_1131  and  CB_1134
REMARK  647  A    between atoms: CB_1134  and  CG_1135
REMARK  648  A    between atoms: CG_1135  and  CD2_1136
REMARK  649  A    between atoms: CG_1135  and  CD1_1137
REMARK  650  A    between atoms: N_1138  and  CA_1139
REMARK  651  A    between atoms: CA_1139  and  C_1140
REMARK  652  A    between atoms: CA_1139  and  CB_1142
REMARK  653  A    between atoms: CB_1142  and  CG_1143
REMARK  654  A    between atoms: CG_1143  and  CD1_1144
REMARK  655  A    between atoms: CG_1143  and  CD2_1145
REMARK  656  A    between atoms: N_1146  and  CA_1147
REMARK  657  A    between atoms: CA_1147  and  C_1148
REMARK  658  A    between atoms: CA_1147  and  CB_1150
REMARK  659  A    between atoms: CB_1150  and  CG_1151
REMARK  660  A    between atoms: CG_1151  and  CD2_1152
REMARK  661  A    between atoms: CG_1151  and  CD1_1153
REMARK  662  A    between atoms: N_1154  and  CA_1155
REMARK  663  A    between atoms: CA_1155  and  C_1156
REMARK  664  A    between atoms: N_1158  and  CA_1159
REMARK  665  A    between atoms: CA_1159  and  C_1160
REMARK  666  A    between atoms: CA_1159  and  CB_1162
REMARK  667  A    between atoms: CB_1162  and  OG_1163
REMARK  668  A    between atoms: N_1164  and  CA_1165
REMARK  669  A    between atoms: CA_1165  and  C_1166
REMARK  670  A    between atoms: CA_1165  and  CB_1168
REMARK  671  A    between atoms: N_1169  and  CA_1170
REMARK  672  A    between atoms: CA_1170  and  C_1171
REMARK  673  A    between atoms: N_1173  and  CA_1174
REMARK  674  A    between atoms: CA_1174  and  C_1175
REMARK  675  A    between atoms: CA_1174  and  CB_1177
REMARK  676  A    between atoms: CB_1177  and  CG_1178
REMARK  677  A    between atoms: CG_1178  and  CD_1179
REMARK  678  A    between atoms: N_1182  and  CA_1183
REMARK  679  A    between atoms: CA_1183  and  C_1184
REMARK  680  A    between atoms: CA_1183  and  CB_1186
REMARK  681  A    between atoms: CB_1186  and  CG_1187
REMARK  682  A    between atoms: CG_1187  and  CD2_1188
REMARK  683  A    between atoms: CG_1187  and  CD1_1189
REMARK  684  A    between atoms: N_1190  and  CA_1191
REMARK  685  A    between atoms: CA_1191  and  C_1192
REMARK  686  A    between atoms: CA_1191  and  CB_1194
REMARK  687  A    between atoms: CB_1194  and  CG_1195
REMARK  688  A    between atoms: CG_1195  and  CD_1196
REMARK  689  A    between atoms: CD_1196  and  CE_1197
REMARK  690  A    between atoms: CE_1197  and  NZ_1198
REMARK  691  A    between atoms: N_1199  and  CA_1200
REMARK  692  A    between atoms: CA_1200  and  C_1201
REMARK  693  A    between atoms: CA_1200  and  CB_1203
REMARK  694  A    between atoms: CB_1203  and  CG1_1204
REMARK  695  A    between atoms: CB_1203  and  CG2_1205
REMARK  696  A    between atoms: CG1_1204  and  CD1_1206
REMARK  697  A    between atoms: N_1207  and  CA_1208
REMARK  698  A    between atoms: CA_1208  and  C_1209
REMARK  699  A    between atoms: CA_1208  and  CB_1211
REMARK  700  A    between atoms: N_1212  and  CA_1213
REMARK  701  A    between atoms: CA_1213  and  C_1214
REMARK  702  A    between atoms: CA_1213  and  CB_1216
REMARK  703  A    between atoms: CB_1216  and  CG_1217
REMARK  704  A    between atoms: N_1220  and  CA_1221
REMARK  705  A    between atoms: CA_1221  and  C_1222
REMARK  706  A    between atoms: CA_1221  and  CB_1224
REMARK  707  A    between atoms: CB_1224  and  CG_1225
REMARK  708  A    between atoms: N_1231  and  CA_1232
REMARK  709  A    between atoms: CA_1232  and  C_1233
REMARK  710  A    between atoms: N_1235  and  CA_1236
REMARK  711  A    between atoms: CA_1236  and  C_1237
REMARK  712  A    between atoms: CA_1236  and  CB_1239
REMARK  713  A    between atoms: CB_1239  and  CG_1240
REMARK  714  A    between atoms: N_1249  and  CA_1250
REMARK  715  A    between atoms: CA_1250  and  C_1251
REMARK  716  A    between atoms: CA_1250  and  CB_1253
REMARK  717  A    between atoms: CB_1253  and  OG_1254
REMARK  718  A    between atoms: N_1255  and  CA_1256
REMARK  719  A    between atoms: CA_1256  and  C_1257
REMARK  720  A    between atoms: CA_1256  and  CB_1259
REMARK  721  A    between atoms: CB_1259  and  CG2_1260
REMARK  722  A    between atoms: CB_1259  and  CG1_1261
REMARK  723  A    between atoms: N_1262  and  CA_1263
REMARK  724  A    between atoms: CA_1263  and  C_1264
REMARK  725  A    between atoms: CA_1263  and  CB_1266
REMARK  726  A    between atoms: CB_1266  and  CG_1267
REMARK  727  A    between atoms: N_1272  and  CA_1273
REMARK  728  A    between atoms: CA_1273  and  C_1274
REMARK  729  A    between atoms: CA_1273  and  CB_1276
REMARK  730  A    between atoms: CA_1278  and  C_1279
REMARK  731  A    between atoms: N_1284  and  CA_1285
REMARK  732  A    between atoms: CA_1285  and  C_1286
REMARK  733  A    between atoms: CA_1285  and  CB_1288
REMARK  734  A    between atoms: CB_1288  and  OG_1289
REMARK  735  A    between atoms: N_1290  and  CA_1291
REMARK  736  A    between atoms: CA_1291  and  C_1292
REMARK  737  A    between atoms: CA_1291  and  CB_1294
REMARK  738  A    between atoms: CB_1294  and  OG_1295
REMARK  739  A    between atoms: N_1296  and  C_1297
REMARK  740  A    between atoms: C_1297  and  C_1298
REMARK  741  A    between atoms: C_1297  and  C_1300
REMARK  742  A    between atoms: C_1300  and  C_1301
REMARK  743  A    between atoms: C_1301  and  C_1302
REMARK  744  A    between atoms: N_1303  and  CA_1304
REMARK  745  A    between atoms: CA_1304  and  C_1305
REMARK  746  A    between atoms: CA_1304  and  CB_1307
REMARK  747  A    between atoms: CB_1307  and  CG_1308
REMARK  748  A    between atoms: CG_1308  and  CD_1309
REMARK  749  A    between atoms: CD_1309  and  NE_1310
REMARK  750  A    between atoms: N_1314  and  CA_1315
REMARK  751  A    between atoms: CA_1315  and  C_1316
REMARK  752  A    between atoms: CA_1315  and  CB_1318
REMARK  753  A    between atoms: CB_1318  and  OG1_1319
REMARK  754  A    between atoms: CB_1318  and  CG2_1320
REMARK  755  A    between atoms: N_1321  and  C_1322
REMARK  756  A    between atoms: C_1322  and  C_1323
REMARK  757  A    between atoms: C_1322  and  C_1325
REMARK  758  A    between atoms: C_1325  and  C_1326
REMARK  759  A    between atoms: C_1326  and  C_1327
REMARK  760  A    between atoms: C_1326  and  C_1328
REMARK  761  A    between atoms: N_1329  and  C_1330
REMARK  762  A    between atoms: C_1330  and  C_1331
REMARK  763  A    between atoms: C_1330  and  C_1333
REMARK  764  A    between atoms: N_1334  and  C_1335
REMARK  765  A    between atoms: C_1335  and  C_1336
REMARK  766  A    between atoms: N_1338  and  C_1339
REMARK  767  A    between atoms: C_1339  and  C_1340
REMARK  768  A    between atoms: C_1339  and  C_1342
REMARK  769  A    between atoms: C_1342  and  O_1343
REMARK  770  A    between atoms: C_1342  and  C_1344
REMARK  771  A    between atoms: N_1345  and  C_1346
REMARK  772  A    between atoms: C_1346  and  C_1347
REMARK  773  A    between atoms: C_1346  and  C_1349
REMARK  774  A    between atoms: C_1349  and  C_1350
REMARK  775  A    between atoms: C_1350  and  C_1351
REMARK  776  A    between atoms: C_1350  and  C_1352
REMARK  777  A    between atoms: N_1353  and  C_1354
REMARK  778  A    between atoms: C_1354  and  C_1355
REMARK  779  A    between atoms: C_1354  and  C_1357
REMARK  780  A    between atoms: C_1357  and  C_1358
REMARK  781  A    between atoms: N_1361  and  C_1362
REMARK  782  A    between atoms: C_1362  and  C_1363
REMARK  783  A    between atoms: C_1362  and  C_1365
REMARK  784  A    between atoms: C_1365  and  C_1366
REMARK  785  A    between atoms: C_1371  and  O_1372
REMARK  786  A    between atoms: N_1373  and  C_1374
REMARK  787  A    between atoms: C_1374  and  C_1375
REMARK  788  A    between atoms: C_1374  and  C_1377
REMARK  789  A    between atoms: C_1377  and  C_1378
REMARK  790  A    between atoms: C_1378  and  C_1379
REMARK  791  A    between atoms: C_1378  and  C_1380
REMARK  792  A    between atoms: C_1382  and  C_1383
REMARK  793  A    between atoms: C_1389  and  C_1390
REMARK  794  A    between atoms: N_1395  and  C_1396
REMARK  795  A    between atoms: C_1396  and  C_1399
REMARK  796  A    between atoms: C_1399  and  C_1400
REMARK  797  A    between atoms: C_1400  and  C_1401
REMARK  798  A    between atoms: N_1405  and  C_1406
REMARK  799  A    between atoms: C_1407  and  C_1412
REMARK  800  A    between atoms: C_1408  and  O_1410
REMARK  801  A    between atoms: C_1409  and  O_1411
REMARK  802  A    between atoms: O_1410  and  O_1411
REMARK  803  A    between atoms: C_1412  and  C_1414
REMARK  804  A    between atoms: C_1413  and  C_1415
REMARK  805  A    between atoms: S_1416  and  C_1418
REMARK  806  A    between atoms: S_1417  and  C_1419
REMARK  807  A    between atoms: C_1418  and  C_1419
REMARK  808  A    between atoms: N_1420  and  CA_1421
REMARK  809  A    between atoms: CA_1421  and  C_1422
REMARK  810  A    between atoms: CA_1421  and  CB_1424
REMARK  811  A    between atoms: CB_1424  and  CG1_1425
REMARK  812  A    between atoms: CB_1424  and  CG2_1426
REMARK  813  A    between atoms: CG1_1425  and  CD1_1427
REMARK  814  A    between atoms: N_1428  and  CA_1429
REMARK  815  A    between atoms: CA_1429  and  C_1430
REMARK  816  A    between atoms: CA_1429  and  CB_1432
REMARK  817  A    between atoms: CB_1432  and  CG_1433
REMARK  818  A    between atoms: CG_1433  and  CD_1434
REMARK  819  A    between atoms: N_1437  and  CA_1438
REMARK  820  A    between atoms: CA_1438  and  C_1439
REMARK  821  A    between atoms: N_1441  and  CA_1442
REMARK  822  A    between atoms: CA_1442  and  C_1443
REMARK  823  A    between atoms: CA_1442  and  CB_1445
REMARK  824  A    between atoms: CB_1445  and  CG_1446
REMARK  825  A    between atoms: CG_1446  and  CD_1447
REMARK  826  A    between atoms: CD_1447  and  NE_1448
REMARK  827  A    between atoms: N_1452  and  C_1453
REMARK  828  A    between atoms: C_1453  and  C_1454
REMARK  829  A    between atoms: C_1453  and  C_1456
REMARK  830  A    between atoms: C_1456  and  C_1457
REMARK  831  A    between atoms: C_1457  and  S_1458
REMARK  832  A    between atoms: N_1459  and  CA_1460
REMARK  833  A    between atoms: CA_1460  and  C_1461
REMARK  834  A    between atoms: CA_1460  and  CB_1463
REMARK  835  A    between atoms: CB_1463  and  CG_1464
REMARK  836  A    between atoms: N_1469  and  CA_1470
REMARK  837  A    between atoms: CA_1470  and  C_1471
REMARK  838  A    between atoms: CA_1470  and  CB_1473
REMARK  839  A    between atoms: CB_1473  and  CG_1474
REMARK  840  A    between atoms: N_1477  and  CA_1478
REMARK  841  A    between atoms: CA_1478  and  C_1479
REMARK  842  A    between atoms: CA_1478  and  CB_1481
REMARK  843  A    between atoms: CB_1481  and  CG_1482
REMARK  844  A    between atoms: CG_1482  and  CD_1483
REMARK  845  A    between atoms: N_1486  and  CA_1487
REMARK  846  A    between atoms: CA_1487  and  C_1488
REMARK  847  A    between atoms: CA_1487  and  CB_1490
REMARK  848  A    between atoms: CB_1490  and  CG_1491
REMARK  849  A    between atoms: CG_1491  and  CD_1492
REMARK  850  A    between atoms: CD_1492  and  CE_1493
REMARK  851  A    between atoms: CE_1493  and  NZ_1494
REMARK  852  A    between atoms: N_1495  and  CA_1496
REMARK  853  A    between atoms: CA_1496  and  C_1497
REMARK  854  A    between atoms: CA_1496  and  CB_1499
REMARK  855  A    between atoms: CB_1499  and  CG2_1500
REMARK  856  A    between atoms: CB_1499  and  CG1_1501
REMARK  857  A    between atoms: N_1502  and  CA_1503
REMARK  858  A    between atoms: CA_1503  and  C_1504
REMARK  859  A    between atoms: CA_1503  and  CB_1506
REMARK  860  A    between atoms: CB_1506  and  CG_1507
REMARK  861  A    between atoms: N_1510  and  CA_1511
REMARK  862  A    between atoms: CA_1511  and  C_1512
REMARK  863  A    between atoms: CA_1511  and  CB_1514
REMARK  864  A    between atoms: CB_1514  and  CG_1515
REMARK  865  A    between atoms: CG_1515  and  CD2_1516
REMARK  866  A    between atoms: CG_1515  and  CD1_1517
REMARK  867  A    between atoms: N_1518  and  CA_1519
REMARK  868  A    between atoms: CA_1519  and  C_1520
REMARK  869  A    between atoms: CA_1519  and  CB_1522
REMARK  870  A    between atoms: CB_1522  and  CG_1523
REMARK  871  A    between atoms: N_1532  and  CA_1533
REMARK  872  A    between atoms: CA_1533  and  C_1534
REMARK  873  A    between atoms: CA_1533  and  CB_1536
REMARK  874  A    between atoms: CB_1536  and  OG_1537
REMARK  875  A    between atoms: N_1538  and  CA_1539
REMARK  876  A    between atoms: CA_1539  and  C_1540
REMARK  877  A    between atoms: CA_1539  and  CB_1542
REMARK  878  A    between atoms: CB_1542  and  CG_1543
REMARK  879  A    between atoms: CG_1543  and  CD2_1544
REMARK  880  A    between atoms: CG_1543  and  CD1_1545
REMARK  881  A    between atoms: N_1546  and  CA_1547
REMARK  882  A    between atoms: CA_1547  and  C_1548
REMARK  883  A    between atoms: N_1550  and  CA_1551
REMARK  884  A    between atoms: CA_1551  and  C_1552
REMARK  885  A    between atoms: CA_1551  and  CB_1554
REMARK  886  A    between atoms: CB_1554  and  CG2_1555
REMARK  887  A    between atoms: CB_1554  and  CG1_1556
REMARK  888  A    between atoms: N_1557  and  CA_1558
REMARK  889  A    between atoms: CA_1558  and  C_1559
REMARK  890  A    between atoms: CA_1558  and  CB_1561
REMARK  891  A    between atoms: CB_1561  and  CG_1562
REMARK  892  A    between atoms: CG_1562  and  CD1_1563
REMARK  893  A    between atoms: CG_1562  and  CD2_1564
REMARK  894  A    between atoms: N_1565  and  CA_1566
REMARK  895  A    between atoms: CA_1566  and  C_1567
REMARK  896  A    between atoms: CA_1566  and  CB_1569
REMARK  897  A    between atoms: CB_1569  and  SG_1570
REMARK  898  A    between atoms: N_1571  and  CA_1572
REMARK  899  A    between atoms: CA_1572  and  C_1573
REMARK  900  A    between atoms: CA_1572  and  CB_1575
REMARK  901  A    between atoms: CB_1575  and  CG_1576
REMARK  902  A    between atoms: CZ_1581  and  OH_1582
REMARK  903  A    between atoms: N_1583  and  CA_1584
REMARK  904  A    between atoms: CA_1584  and  C_1585
REMARK  905  A    between atoms: CA_1584  and  CB_1587
REMARK  906  A    between atoms: CB_1587  and  CG_1588
REMARK  907  A    between atoms: CG_1588  and  CD_1589
REMARK  908  A    between atoms: N_1592  and  CA_1593
REMARK  909  A    between atoms: CA_1593  and  C_1594
REMARK  910  A    between atoms: CA_1593  and  CB_1596
REMARK  911  A    between atoms: CB_1596  and  CG_1597
REMARK  912  A    between atoms: N_1603  and  CA_1604
REMARK  913  A    between atoms: CA_1604  and  C_1605
REMARK  914  A    between atoms: CA_1604  and  CB_1607
REMARK  915  A    between atoms: CB_1607  and  CG_1608
REMARK  916  A    between atoms: CG_1608  and  CD1_1609
REMARK  917  A    between atoms: CG_1608  and  CD2_1610
REMARK  918  A    between atoms: N_1611  and  CA_1612
REMARK  919  A    between atoms: CA_1612  and  C_1613
REMARK  920  A    between atoms: CA_1612  and  CB_1615
REMARK  921  A    between atoms: CB_1615  and  CG2_1616
REMARK  922  A    between atoms: CB_1615  and  CG1_1617
REMARK  923  A    between atoms: N_1618  and  CA_1619
REMARK  924  A    between atoms: CA_1619  and  C_1620
REMARK  925  A    between atoms: N_1622  and  C_1623
REMARK  926  A    between atoms: C_1623  and  C_1624
REMARK  927  A    between atoms: C_1623  and  C_1626
REMARK  928  A    between atoms: C_1626  and  C_1627
REMARK  929  A    between atoms: C_1627  and  C_1628
REMARK  930  A    between atoms: CA_1630  and  C_1631
REMARK  931  A    between atoms: CA_1637  and  C_1638
REMARK  932  A    between atoms: N_1643  and  CA_1644
REMARK  933  A    between atoms: CA_1644  and  C_1645
REMARK  934  A    between atoms: CA_1644  and  CB_1647
REMARK  935  A    between atoms: CB_1647  and  CG_1648
REMARK  936  A    between atoms: N_1654  and  CA_1655
REMARK  937  A    between atoms: CA_1655  and  C_1656
REMARK  938  A    between atoms: CA_1655  and  CB_1658
REMARK  939  A    between atoms: CB_1658  and  CG_1659
REMARK  940  A    between atoms: CG_1659  and  CD_1660
REMARK  941  A    between atoms: N_1663  and  CA_1664
REMARK  942  A    between atoms: CA_1664  and  C_1665
REMARK  943  A    between atoms: CA_1664  and  CB_1667
REMARK  944  A    between atoms: N_1668  and  CA_1669
REMARK  945  A    between atoms: CA_1669  and  C_1670
REMARK  946  A    between atoms: CA_1669  and  CB_1672
REMARK  947  A    between atoms: CB_1672  and  CG_1673
REMARK  948  A    between atoms: N_1676  and  CA_1677
REMARK  949  A    between atoms: CA_1677  and  C_1678
REMARK  950  A    between atoms: CA_1677  and  CB_1680
REMARK  951  A    between atoms: CB_1680  and  OG1_1681
REMARK  952  A    between atoms: CB_1680  and  CG2_1682
REMARK  953  A    between atoms: N_1683  and  CA_1684
REMARK  954  A    between atoms: CA_1684  and  C_1685
REMARK  955  A    between atoms: CA_1684  and  CB_1687
REMARK  956  A    between atoms: CB_1687  and  CG_1688
REMARK  957  A    between atoms: CZ_1693  and  OH_1694
REMARK  958  A    between atoms: N_1695  and  CA_1696
REMARK  959  A    between atoms: CA_1696  and  C_1697
REMARK  960  A    between atoms: CA_1696  and  CB_1699
REMARK  961  A    between atoms: CB_1699  and  CG_1700
REMARK  962  A    between atoms: CG_1700  and  CD_1701
REMARK  963  A    between atoms: N_1704  and  CA_1705
REMARK  964  A    between atoms: CA_1705  and  C_1706
REMARK  965  A    between atoms: CA_1705  and  CB_1708
REMARK  966  A    between atoms: CB_1708  and  CG_1709
REMARK  967  A    between atoms: CG_1709  and  CD_1710
REMARK  968  A    between atoms: N_1713  and  CA_1714
REMARK  969  A    between atoms: CA_1714  and  C_1715
REMARK  970  A    between atoms: CA_1714  and  CB_1717
REMARK  971  A    between atoms: CB_1717  and  OG1_1718
REMARK  972  A    between atoms: CB_1717  and  CG2_1719
REMARK  973  A    between atoms: N_1720  and  CA_1721
REMARK  974  A    between atoms: CA_1721  and  C_1722
REMARK  975  A    between atoms: CA_1721  and  CB_1724
REMARK  976  A    between atoms: CB_1724  and  CG_1725
REMARK  977  A    between atoms: CZ_1730  and  OH_1731
REMARK  978  A    between atoms: N_1732  and  CA_1733
REMARK  979  A    between atoms: CA_1733  and  C_1734
REMARK  980  A    between atoms: CA_1733  and  CB_1736
REMARK  981  A    between atoms: CB_1736  and  SG_1737
REMARK  982  A    between atoms: N_1738  and  C_1739
REMARK  983  A    between atoms: C_1739  and  C_1740
REMARK  984  A    between atoms: C_1739  and  C_1742
REMARK  985  A    between atoms: C_1742  and  C_1743
REMARK  986  A    between atoms: C_1743  and  C_1744
REMARK  987  A    between atoms: C_1744  and  N_1745
REMARK  988  A    between atoms: N_1746  and  CA_1747
REMARK  989  A    between atoms: CA_1747  and  C_1748
REMARK  990  A    between atoms: CA_1747  and  CB_1750
REMARK  991  A    between atoms: CB_1750  and  CG1_1751
REMARK  992  A    between atoms: CB_1750  and  CG2_1752
REMARK  993  A    between atoms: CG1_1751  and  CD1_1753
REMARK  994  A    between atoms: N_1754  and  C_1755
REMARK  995  A    between atoms: C_1755  and  C_1756
REMARK  996  A    between atoms: C_1755  and  C_1758
REMARK  997  A    between atoms: C_1758  and  O_1759
REMARK  998  A    between atoms: N_1760  and  C_1761
REMARK  999  A    between atoms: C_1761  and  C_1762
REMARK  1000  A    between atoms: C_1761  and  C_1764
REMARK  1001  A    between atoms: C_1764  and  C_1765
REMARK  1002  A    between atoms: C_1765  and  C_1766
REMARK  1003  A    between atoms: C_1766  and  N_1767
REMARK  1004  A    between atoms: N_1771  and  C_1772
REMARK  1005  A    between atoms: C_1772  and  C_1773
REMARK  1006  A    between atoms: C_1772  and  C_1775
REMARK  1007  A    between atoms: C_1775  and  C_1776
REMARK  1008  A    between atoms: C_1775  and  C_1777
REMARK  1009  A    between atoms: N_1778  and  C_1779
REMARK  1010  A    between atoms: C_1779  and  C_1780
REMARK  1011  A    between atoms: C_1779  and  C_1782
REMARK  1012  A    between atoms: C_1782  and  C_1783
REMARK  1013  A    between atoms: C_1783  and  C_1784
REMARK  1014  A    between atoms: N_1787  and  C_1788
REMARK  1015  A    between atoms: C_1788  and  C_1789
REMARK  1016  A    between atoms: C_1788  and  C_1791
REMARK  1017  A    between atoms: C_1791  and  C_1792
REMARK  1018  A    between atoms: N_1798  and  C_1799
REMARK  1019  A    between atoms: C_1799  and  C_1800
REMARK  1020  A    between atoms: C_1799  and  C_1802
REMARK  1021  A    between atoms: C_1802  and  O_1803
REMARK  1022  A    between atoms: C_1802  and  C_1804
REMARK  1023  A    between atoms: N_1805  and  C_1806
REMARK  1024  A    between atoms: C_1806  and  C_1807
REMARK  1025  A    between atoms: C_1806  and  C_1809
REMARK  1026  A    between atoms: C_1809  and  C_1810
REMARK  1027  A    between atoms: C_1817  and  C_1818
REMARK  1028  A    between atoms: N_1823  and  C_1824
REMARK  1029  A    between atoms: C_1824  and  C_1825
REMARK  1030  A    between atoms: C_1824  and  C_1827
REMARK  1031  A    between atoms: C_1827  and  C_1828
REMARK  1032  A    between atoms: N_1831  and  C_1832
REMARK  1033  A    between atoms: C_1832  and  C_1833
REMARK  1034  A    between atoms: C_1832  and  C_1835
REMARK  1035  A    between atoms: C_1835  and  C_1836
REMARK  1036  A    between atoms: N_1842  and  C_1843
REMARK  1037  A    between atoms: C_1843  and  C_1844
REMARK  1038  A    between atoms: C_1843  and  C_1846
REMARK  1039  A    between atoms: C_1846  and  C_1847
REMARK  1040  A    between atoms: C_1846  and  C_1848
REMARK  1041  A    between atoms: N_1849  and  C_1850
REMARK  1042  A    between atoms: C_1850  and  C_1851
REMARK  1043  A    between atoms: C_1850  and  C_1853
REMARK  1044  A    between atoms: C_1853  and  O_1854
REMARK  1045  A    between atoms: C_1853  and  C_1855
REMARK  1046  A    between atoms: N_1856  and  C_1857
REMARK  1047  A    between atoms: C_1858  and  C_1859
REMARK  1048  A    between atoms: C_1858  and  C_1861
REMARK  1049  A    between atoms: C_1862  and  C_1863
REMARK  1050  A    between atoms: C_1862  and  C_1864
REMARK  1051  A    between atoms: C_1863  and  C_1865
REMARK  1052  A    between atoms: N_1871  and  C_1872
REMARK  1053  A    between atoms: C_1872  and  C_1873
REMARK  1054  A    between atoms: N_1875  and  CA_1876
REMARK  1055  A    between atoms: CA_1876  and  C_1877
REMARK  1056  A    between atoms: CA_1876  and  CB_1879
REMARK  1057  A    between atoms: N_1880  and  CA_1881
REMARK  1058  A    between atoms: CA_1881  and  C_1882
REMARK  1059  A    between atoms: CA_1881  and  CB_1884
REMARK  1060  A    between atoms: CB_1884  and  CG_1885
REMARK  1061  A    between atoms: CG_1885  and  CD_1886
REMARK  1062  A    between atoms: CD_1886  and  NE_1887
REMARK  1063  A    between atoms: N_1891  and  CA_1892
REMARK  1064  A    between atoms: CA_1892  and  C_1893
REMARK  1065  A    between atoms: CA_1892  and  CB_1895
REMARK  1066  A    between atoms: CB_1895  and  CG_1896
REMARK  1067  A    between atoms: N_1899  and  CA_1900
REMARK  1068  A    between atoms: CA_1900  and  C_1901
REMARK  1069  A    between atoms: CA_1900  and  CB_1903
REMARK  1070  A    between atoms: CB_1903  and  CG_1904
REMARK  1071  A    between atoms: CG_1904  and  CD1_1905
REMARK  1072  A    between atoms: CG_1904  and  CD2_1906
REMARK  1073  A    between atoms: N_1907  and  CA_1908
REMARK  1074  A    between atoms: CA_1908  and  C_1909
REMARK  1075  A    between atoms: CA_1908  and  CB_1911
REMARK  1076  A    between atoms: CB_1911  and  CG1_1912
REMARK  1077  A    between atoms: CB_1911  and  CG2_1913
REMARK  1078  A    between atoms: CG1_1912  and  CD1_1914
REMARK  1079  A    between atoms: N_1915  and  CA_1916
REMARK  1080  A    between atoms: CA_1916  and  C_1917
REMARK  1081  A    between atoms: CA_1916  and  CB_1919
REMARK  1082  A    between atoms: CB_1919  and  OG_1920
REMARK  1083  A    between atoms: N_1921  and  CA_1922
REMARK  1084  A    between atoms: CA_1922  and  C_1923
REMARK  1085  A    between atoms: CA_1922  and  CB_1925
REMARK  1086  A    between atoms: CB_1925  and  CG_1926
REMARK  1087  A    between atoms: CG_1926  and  CD_1927
REMARK  1088  A    between atoms: CD_1927  and  NE_1928
REMARK  1089  A    between atoms: N_1932  and  CA_1933
REMARK  1090  A    between atoms: CA_1933  and  C_1934
REMARK  1091  A    between atoms: CA_1933  and  CB_1936
REMARK  1092  A    between atoms: CB_1936  and  CG_1937
REMARK  1093  A    between atoms: CG_1937  and  CD2_1938
REMARK  1094  A    between atoms: CG_1937  and  CD1_1939
REMARK  1095  A    between atoms: N_1940  and  CA_1941
REMARK  1096  A    between atoms: CA_1941  and  C_1942
REMARK  1097  A    between atoms: CA_1941  and  CB_1944
REMARK  1098  A    between atoms: CB_1944  and  CG_1945
REMARK  1099  A    between atoms: CG_1945  and  CD2_1946
REMARK  1100  A    between atoms: CG_1945  and  CD1_1947
REMARK  1101  A    between atoms: N_1948  and  CA_1949
REMARK  1102  A    between atoms: CA_1949  and  C_1950
REMARK  1103  A    between atoms: CA_1949  and  CB_1952
REMARK  1104  A    between atoms: CB_1952  and  CG_1953
REMARK  1105  A    between atoms: CG_1953  and  CD_1954
REMARK  1106  A    between atoms: CD_1954  and  CE_1955
REMARK  1107  A    between atoms: CE_1955  and  NZ_1956
REMARK  1108  A    between atoms: N_1957  and  CA_1958
REMARK  1109  A    between atoms: CA_1958  and  C_1959
REMARK  1110  A    between atoms: CA_1958  and  CB_1961
REMARK  1111  A    between atoms: CB_1961  and  CG_1962
REMARK  1112  A    between atoms: N_1967  and  CA_1968
REMARK  1113  A    between atoms: CA_1968  and  C_1969
REMARK  1114  A    between atoms: CA_1968  and  CB_1971
REMARK  1115  A    between atoms: CB_1971  and  CG_1972
REMARK  1116  A    between atoms: CA_1976  and  C_1977
REMARK  1117  A    between atoms: N_1982  and  C_1983
REMARK  1118  A    between atoms: C_1983  and  C_1984
REMARK  1119  A    between atoms: C_1983  and  C_1986
REMARK  1120  A    between atoms: C_1986  and  O_1987
REMARK  1121  A    between atoms: N_1988  and  C_1989
REMARK  1122  A    between atoms: C_1989  and  C_1990
REMARK  1123  A    between atoms: C_1989  and  C_1992
REMARK  1124  A    between atoms: C_1992  and  C_1993
REMARK  1125  A    between atoms: C_1993  and  C_1994
REMARK  1126  A    between atoms: N_1997  and  C_1998
REMARK  1127  A    between atoms: C_1998  and  C_1999
REMARK  1128  A    between atoms: C_1998  and  C_2001
REMARK  1129  A    between atoms: C_2001  and  C_2002
REMARK  1130  A    between atoms: C_2002  and  C_2003
REMARK  1131  A    between atoms: C_2003  and  N_2004
REMARK  1132  A    between atoms: C_2009  and  C_2010
REMARK  1133  A    between atoms: N_2015  and  C_2017
REMARK  1134  A    between atoms: C_2016  and  C_2018
REMARK  1135  A    between atoms: C_2016  and  C_2021
REMARK  1136  A    between atoms: C_2021  and  C_2022
REMARK  1137  A    between atoms: C_2022  and  C_2023
REMARK  1138  A    between atoms: C_2023  and  S_2024
REMARK  1139  A    between atoms: C_2023  and  S_2025
REMARK  1140  A    between atoms: S_2024  and  C_2026
REMARK  1141  A    between atoms: S_2025  and  C_2027
REMARK  1142  A    between atoms: N_2028  and  CA_2029
REMARK  1143  A    between atoms: CA_2029  and  C_2030
REMARK  1144  A    between atoms: CA_2029  and  CB_2032
REMARK  1145  A    between atoms: CB_2032  and  CG_2033
REMARK  1146  A    between atoms: CG_2033  and  CD1_2034
REMARK  1147  A    between atoms: CG_2033  and  CD2_2035
REMARK  1148  A    between atoms: N_2036  and  CA_2037
REMARK  1149  A    between atoms: CA_2037  and  C_2038
REMARK  1150  A    between atoms: CA_2037  and  CB_2040
REMARK  1151  A    between atoms: N_2041  and  CA_2042
REMARK  1152  A    between atoms: CA_2042  and  C_2043
REMARK  1153  A    between atoms: CA_2042  and  CB_2045
REMARK  1154  A    between atoms: CB_2045  and  CG_2046
REMARK  1155  A    between atoms: CG_2046  and  CD_2047
REMARK  1156  A    between atoms: N_2050  and  CA_2051
REMARK  1157  A    between atoms: CA_2051  and  C_2052
REMARK  1158  A    between atoms: CA_2051  and  CB_2054
REMARK  1159  A    between atoms: CB_2054  and  CG2_2055
REMARK  1160  A    between atoms: CB_2054  and  CG1_2056
REMARK  1161  A    between atoms: N_2057  and  CA_2058
REMARK  1162  A    between atoms: CA_2058  and  C_2059
REMARK  1163  A    between atoms: CA_2058  and  CB_2061
REMARK  1164  A    between atoms: CB_2061  and  CG_2062
REMARK  1165  A    between atoms: CG_2062  and  CD1_2063
REMARK  1166  A    between atoms: CG_2062  and  CD2_2064
REMARK  1167  A    between atoms: N_2065  and  CA_2066
REMARK  1168  A    between atoms: CA_2066  and  C_2067
REMARK  1169  A    between atoms: CA_2066  and  CB_2069
REMARK  1170  A    between atoms: CB_2069  and  CG_2070
REMARK  1171  A    between atoms: CG_2070  and  CD_2071
REMARK  1172  A    between atoms: N_2074  and  CA_2075
REMARK  1173  A    between atoms: CA_2075  and  C_2076
REMARK  1174  A    between atoms: CA_2075  and  CB_2078
REMARK  1175  A    between atoms: CB_2078  and  CG_2079
REMARK  1176  A    between atoms: CA_2085  and  C_2086
REMARK  1177  A    between atoms: N_2091  and  CA_2092
REMARK  1178  A    between atoms: CA_2092  and  C_2093
REMARK  1179  A    between atoms: CA_2092  and  CB_2095
REMARK  1180  A    between atoms: CB_2095  and  CG_2096
REMARK  1181  A    between atoms: N_2105  and  CA_2106
REMARK  1182  A    between atoms: CA_2106  and  C_2107
REMARK  1183  A    between atoms: CA_2106  and  CB_2109
REMARK  1184  A    between atoms: CB_2109  and  CG1_2110
REMARK  1185  A    between atoms: CB_2109  and  CG2_2111
REMARK  1186  A    between atoms: CG1_2110  and  CD1_2112
REMARK  1187  A    between atoms: N_2113  and  CA_2114
REMARK  1188  A    between atoms: CA_2114  and  C_2115
REMARK  1189  A    between atoms: CA_2114  and  CB_2117
REMARK  1190  A    between atoms: CB_2117  and  OG1_2118
REMARK  1191  A    between atoms: CB_2117  and  CG2_2119
REMARK  1192  A    between atoms: N_2120  and  CA_2121
REMARK  1193  A    between atoms: CA_2121  and  C_2122
REMARK  1194  A    between atoms: CA_2121  and  CB_2124
REMARK  1195  A    between atoms: N_2125  and  CA_2126
REMARK  1196  A    between atoms: CA_2126  and  C_2127
REMARK  1197  A    between atoms: CA_2126  and  CB_2129
REMARK  1198  A    between atoms: CB_2129  and  CG_2130
REMARK  1199  A    between atoms: N_2133  and  CA_2134
REMARK  1200  A    between atoms: CA_2134  and  C_2135
REMARK  1201  A    between atoms: CA_2134  and  CB_2137
REMARK  1202  A    between atoms: CB_2137  and  OG_2138
REMARK  1203  A    between atoms: N_2139  and  CA_2140
REMARK  1204  A    between atoms: CA_2140  and  C_2141
REMARK  1205  A    between atoms: CA_2140  and  CB_2143
REMARK  1206  A    between atoms: CB_2143  and  OG_2144
REMARK  1207  A    between atoms: N_2145  and  C_2146
REMARK  1208  A    between atoms: C_2146  and  C_2147
REMARK  1209  A    between atoms: C_2146  and  C_2149
REMARK  1210  A    between atoms: C_2149  and  C_2150
REMARK  1211  A    between atoms: N_2151  and  CA_2152
REMARK  1212  A    between atoms: CA_2152  and  C_2153
REMARK  1213  A    between atoms: CA_2152  and  CB_2155
REMARK  1214  A    between atoms: CB_2155  and  OG_2156
REMARK  1215  A    between atoms: N_2157  and  CA_2158
REMARK  1216  A    between atoms: CA_2158  and  C_2159
REMARK  1217  A    between atoms: CA_2158  and  CB_2161
REMARK  1218  A    between atoms: CB_2161  and  CG_2162
REMARK  1219  A    between atoms: CG_2162  and  CD_2163
REMARK  1220  A    between atoms: CA_2167  and  C_2168
REMARK  1221  A    between atoms: CA_2174  and  C_2175
REMARK  1222  A    between atoms: N_2180  and  CA_2181
REMARK  1223  A    between atoms: CA_2181  and  C_2182
REMARK  1224  A    between atoms: CA_2181  and  CB_2184
REMARK  1225  A    between atoms: CB_2184  and  OG_2185
REMARK  1226  A    between atoms: N_2186  and  CA_2187
REMARK  1227  A    between atoms: CA_2187  and  C_2188
REMARK  1228  A    between atoms: CA_2187  and  CB_2190
REMARK  1229  A    between atoms: CB_2190  and  CG_2191
REMARK  1230  A    between atoms: N_2200  and  CA_2201
REMARK  1231  A    between atoms: CA_2201  and  C_2202
REMARK  1232  A    between atoms: CA_2201  and  CB_2204
REMARK  1233  A    between atoms: CB_2204  and  CG2_2205
REMARK  1234  A    between atoms: CB_2204  and  CG1_2206
REMARK  1235  A    between atoms: N_2207  and  CA_2208
REMARK  1236  A    between atoms: CA_2208  and  C_2209
REMARK  1237  A    between atoms: CA_2208  and  CB_2211
REMARK  1238  A    between atoms: CB_2211  and  OG1_2212
REMARK  1239  A    between atoms: CB_2211  and  CG2_2213
REMARK  1240  A    between atoms: N_2214  and  CA_2215
REMARK  1241  A    between atoms: CA_2215  and  C_2216
REMARK  1242  A    between atoms: CA_2215  and  CB_2218
REMARK  1243  A    between atoms: CB_2218  and  CG_2219
REMARK  1244  A    between atoms: CG_2219  and  CD_2220
REMARK  1245  A    between atoms: N_2223  and  CA_2224
REMARK  1246  A    between atoms: CA_2224  and  C_2225
REMARK  1247  A    between atoms: CA_2224  and  CB_2227
REMARK  1248  A    between atoms: CB_2227  and  CG_2228
REMARK  1249  A    between atoms: CG_2228  and  SD_2229
REMARK  1250  A    between atoms: SD_2229  and  CE_2230
REMARK  1251  A    between atoms: N_2231  and  CA_2232
REMARK  1252  A    between atoms: CA_2232  and  C_2233
REMARK  1253  A    between atoms: CA_2232  and  CB_2235
REMARK  1254  A    between atoms: CB_2235  and  CG_2236
REMARK  1255  A    between atoms: CG_2236  and  CD1_2237
REMARK  1256  A    between atoms: CG_2236  and  CD2_2238
REMARK  1257  A    between atoms: N_2239  and  CA_2240
REMARK  1258  A    between atoms: CA_2240  and  C_2241
REMARK  1259  A    between atoms: CA_2240  and  CB_2243
REMARK  1260  A    between atoms: CB_2243  and  CG_2244
REMARK  1261  A    between atoms: CG_2244  and  CD1_2245
REMARK  1262  A    between atoms: CG_2244  and  CD2_2246
REMARK  1263  A    between atoms: N_2247  and  CA_2248
REMARK  1264  A    between atoms: CA_2248  and  C_2249
REMARK  1265  A    between atoms: CA_2248  and  CB_2251
REMARK  1266  A    between atoms: CB_2251  and  CG_2252
REMARK  1267  A    between atoms: CG_2252  and  CD_2253
REMARK  1268  A    between atoms: N_2256  and  CA_2257
REMARK  1269  A    between atoms: CA_2257  and  C_2258
REMARK  1270  A    between atoms: CA_2257  and  CB_2260
REMARK  1271  A    between atoms: CB_2260  and  CG_2261
REMARK  1272  A    between atoms: CG_2261  and  CD_2262
REMARK  1273  A    between atoms: CD_2262  and  CE_2263
REMARK  1274  A    between atoms: CE_2263  and  NZ_2264
REMARK  1275  A    between atoms: N_2265  and  C_2266
REMARK  1276  A    between atoms: C_2266  and  C_2267
REMARK  1277  A    between atoms: C_2266  and  C_2269
REMARK  1278  A    between atoms: C_2269  and  C_2270
REMARK  1279  A    between atoms: N_2271  and  CA_2272
REMARK  1280  A    between atoms: CA_2272  and  C_2273
REMARK  1281  A    between atoms: CA_2272  and  CB_2275
REMARK  1282  A    between atoms: CB_2275  and  CG_2276
REMARK  1283  A    between atoms: CG_2276  and  CD2_2277
REMARK  1284  A    between atoms: CG_2276  and  CD1_2278
REMARK  1285  A    between atoms: N_2279  and  CA_2280
REMARK  1286  A    between atoms: CA_2280  and  C_2281
REMARK  1287  A    between atoms: CA_2280  and  CB_2283
REMARK  1288  A    between atoms: CB_2283  and  CG_2284
REMARK  1289  A    between atoms: N_2293  and  CA_2294
REMARK  1290  A    between atoms: CA_2294  and  C_2295
REMARK                            x       y       z     vdW  Elec       q    Type
REMARK                         _______ _______ _______ _____ _____    ______ ____
ROOT
ATOM      1  C   UNL    11     -51.285  49.391  -1.425  0.00  0.00    -0.000 C 
ENDROOT
TORSDOF 0
REMARK  Name = /Users/wangyang/Desktop/Breast_cancer_brain_metastasis/wang_Gene/AIDD/15_Protein_ligand_docking/data_7ztl/protein.pdb
REMARK  1290 active torsions:
REMARK  status: ('A' for Active; 'I' for Inactive)
REMARK    1  A    between atoms: N_1  and  CA_2
REMARK    2  A    between atoms: CA_2  and  C_3
REMARK    3  A    between atoms: N_5  and  CA_6
REMARK    4  A    between atoms: CA_6  and  C_7
REMARK    5  A    between atoms: CA_6  and  CB_9
REMARK    6  A    between atoms: N_10  and  CA_11
REMARK    7  A    between atoms: CA_11  and  C_12
REMARK    8  A    between atoms: CA_11  and  CB_14
REMARK    9  A    between atoms: CB_14  and  CG_15
REMARK   10  A    between atoms: N_24  and  CA_25
REMARK   11  A    between atoms: CA_25  and  C_26
REMARK   12  A    between atoms: CA_25  and  CB_28
REMARK   13  A    between atoms: N_29  and  CA_30
REMARK   14  A    between atoms: CA_30  and  C_31
REMARK   15  A    between atoms: CA_30  and  CB_33
REMARK   16  A    between atoms: CB_33  and  CG_34
REMARK   17  A    between atoms: CG_34  and  CD1_35
REMARK   18  A    between atoms: CG_34  and  CD2_36
REMARK   19  A    between atoms: N_37  and  CA_38
REMARK   20  A    between atoms: CA_38  and  C_39
REMARK   21  A    between atoms: CA_38  and  CB_41
REMARK   22  A    between atoms: CB_41  and  CG_42
REMARK   23  A    between atoms: CG_42  and  CD_43
REMARK   24  A    between atoms: N_46  and  CA_47
REMARK   25  A    between atoms: CA_47  and  C_48
REMARK   26  A    between atoms: CA_47  and  CB_50
REMARK   27  A    between atoms: CB_50  and  CG_51
REMARK   28  A    between atoms: N_54  and  CA_55
REMARK   29  A    between atoms: CA_55  and  C_56
REMARK   30  A    between atoms: CA_55  and  CB_58
REMARK   31  A    between atoms: CB_58  and  CG_59
REMARK   32  A    between atoms: N_65  and  CA_66
REMARK   33  A    between atoms: CA_66  and  C_67
REMARK   34  A    between atoms: CA_66  and  CB_69
REMARK   35  A    between atoms: CB_69  and  CG_70
REMARK   36  A    between atoms: CG_70  and  CD_71
REMARK   37  A    between atoms: N_74  and  CA_75
REMARK   38  A    between atoms: CA_75  and  C_76
REMARK   39  A    between atoms: CA_75  and  CB_78
REMARK   40  A    between atoms: CB_78  and  CG1_79
REMARK   41  A    between atoms: CB_78  and  CG2_80
REMARK   42  A    between atoms: CG1_79  and  CD1_81
REMARK   43  A    between atoms: N_82  and  CA_83
REMARK   44  A    between atoms: CA_83  and  C_84
REMARK   45  A    between atoms: N_86  and  CA_87
REMARK   46  A    between atoms: CA_87  and  C_88
REMARK   47  A    between atoms: CA_87  and  CB_90
REMARK   48  A    between atoms: CB_90  and  CG_91
REMARK   49  A    between atoms: CG_91  and  CD_92
REMARK   50  A    between atoms: CD_92  and  NE_93
REMARK   51  A    between atoms: CA_98  and  C_99
REMARK   52  A    between atoms: N_104  and  CA_105
REMARK   53  A    between atoms: CA_105  and  C_106
REMARK   54  A    between atoms: CA_105  and  CB_108
REMARK   55  A    between atoms: CB_108  and  CG_109
REMARK   56  A    between atoms: CG_109  and  CD1_110
REMARK   57  A    between atoms: CG_109  and  CD2_111
REMARK   58  A    between atoms: N_112  and  CA_113
REMARK   59  A    between atoms: CA_113  and  C_114
REMARK   60  A    between atoms: N_116  and  C_117
REMARK   61  A    between atoms: C_117  and  C_118
REMARK   62  A    between atoms: C_117  and  C_120
REMARK   63  A    between atoms: C_120  and  C_121
REMARK   64  A    between atoms: C_121  and  C_122
REMARK   65  A    between atoms: N_123  and  CA_124
REMARK   66  A    between atoms: CA_124  and  C_125
REMARK   67  A    between atoms: N_127  and  CA_128
REMARK   68  A    between atoms: CA_128  and  C_129
REMARK   69  A    between atoms: CA_128  and  CB_131
REMARK   70  A    between atoms: CB_131  and  CG_132
REMARK   71  A    between atoms: CG_132  and  CD_133
REMARK   72  A    between atoms: CD_133  and  CE_134
REMARK   73  A    between atoms: CE_134  and  NZ_135
REMARK   74  A    between atoms: N_136  and  CA_137
REMARK   75  A    between atoms: CA_137  and  C_138
REMARK   76  A    between atoms: CA_137  and  CB_140
REMARK   77  A    between atoms: CB_140  and  CG_141
REMARK   78  A    between atoms: N_147  and  CA_148
REMARK   79  A    between atoms: CA_148  and  C_149
REMARK   80  A    between atoms: N_151  and  CA_152
REMARK   81  A    between atoms: CA_152  and  C_153
REMARK   82  A    between atoms: CA_152  and  CB_155
REMARK   83  A    between atoms: CB_155  and  CG_156
REMARK   84  A    between atoms: N_159  and  CA_160
REMARK   85  A    between atoms: CA_160  and  C_161
REMARK   86  A    between atoms: CA_160  and  CB_163
REMARK   87  A    between atoms: CB_163  and  CG1_164
REMARK   88  A    between atoms: CB_163  and  CG2_165
REMARK   89  A    between atoms: N_166  and  CA_167
REMARK   90  A    between atoms: CA_167  and  C_168
REMARK   91  A    between atoms: CA_167  and  CB_170
REMARK   92  A    between atoms: CB_170  and  CG_171
REMARK   93  A    between atoms: CZ_176  and  OH_177
REMARK   94  A    between atoms: N_178  and  CA_179
REMARK   95  A    between atoms: CA_179  and  C_180
REMARK   96  A    between atoms: CA_179  and  CB_182
REMARK   97  A    between atoms: CB_182  and  CG_183
REMARK   98  A    between atoms: CG_183  and  CD1_184
REMARK   99  A    between atoms: CG_183  and  CD2_185
REMARK  100  A    between atoms: N_186  and  CA_187
REMARK  101  A    between atoms: CA_187  and  C_188
REMARK  102  A    between atoms: CA_187  and  CB_190
REMARK  103  A    between atoms: N_191  and  CA_192
REMARK  104  A    between atoms: CA_192  and  C_193
REMARK  105  A    between atoms: CA_192  and  CB_195
REMARK  106  A    between atoms: CB_195  and  CG_196
REMARK  107  A    between atoms: CG_196  and  CD_197
REMARK  108  A    between atoms: CD_197  and  NE_198
REMARK  109  A    between atoms: N_202  and  CA_203
REMARK  110  A    between atoms: CA_203  and  C_204
REMARK  111  A    between atoms: CA_203  and  CB_206
REMARK  112  A    between atoms: CB_206  and  CG_207
REMARK  113  A    between atoms: CG_207  and  CD_208
REMARK  114  A    between atoms: N_211  and  CA_212
REMARK  115  A    between atoms: CA_212  and  C_213
REMARK  116  A    between atoms: CA_212  and  CB_215
REMARK  117  A    between atoms: CB_215  and  CG_216
REMARK  118  A    between atoms: CG_216  and  CD_217
REMARK  119  A    between atoms: CD_217  and  CE_218
REMARK  120  A    between atoms: CE_218  and  NZ_219
REMARK  121  A    between atoms: N_220  and  CA_221
REMARK  122  A    between atoms: CA_221  and  C_222
REMARK  123  A    between atoms: CA_221  and  CB_224
REMARK  124  A    between atoms: N_225  and  CA_226
REMARK  125  A    between atoms: CA_226  and  C_227
REMARK  126  A    between atoms: CA_226  and  CB_229
REMARK  127  A    between atoms: CB_229  and  OG_230
REMARK  128  A    between atoms: N_231  and  CA_232
REMARK  129  A    between atoms: CA_232  and  C_233
REMARK  130  A    between atoms: CA_232  and  CB_235
REMARK  131  A    between atoms: CB_235  and  CG_236
REMARK  132  A    between atoms: CG_236  and  CD_237
REMARK  133  A    between atoms: CD_237  and  CE_238
REMARK  134  A    between atoms: CE_238  and  NZ_239
REMARK  135  A    between atoms: N_240  and  CA_241
REMARK  136  A    between atoms: CA_241  and  C_242
REMARK  137  A    between atoms: CA_241  and  CB_244
REMARK  138  A    between atoms: CB_244  and  CG_245
REMARK  139  A    between atoms: N_251  and  CA_252
REMARK  140  A    between atoms: CA_252  and  C_253
REMARK  141  A    between atoms: CA_252  and  CB_255
REMARK  142  A    between atoms: CB_255  and  CG1_256
REMARK  143  A    between atoms: CB_255  and  CG2_257
REMARK  144  A    between atoms: CG1_256  and  CD1_258
REMARK  145  A    between atoms: N_259  and  CA_260
REMARK  146  A    between atoms: CA_260  and  C_261
REMARK  147  A    between atoms: CA_260  and  CB_263
REMARK  148  A    between atoms: CB_263  and  CG_264
REMARK  149  A    between atoms: CG_264  and  CD1_265
REMARK  150  A    between atoms: CG_264  and  CD2_266
REMARK  151  A    between atoms: N_267  and  CA_268
REMARK  152  A    between atoms: CA_268  and  C_269
REMARK  153  A    between atoms: CA_268  and  CB_271
REMARK  154  A    between atoms: N_272  and  CA_273
REMARK  155  A    between atoms: CA_273  and  C_274
REMARK  156  A    between atoms: CA_273  and  CB_276
REMARK  157  A    between atoms: CB_276  and  CG_277
REMARK  158  A    between atoms: CG_277  and  CD2_278
REMARK  159  A    between atoms: CG_277  and  CD1_279
REMARK  160  A    between atoms: N_280  and  CA_281
REMARK  161  A    between atoms: CA_281  and  C_282
REMARK  162  A    between atoms: CA_281  and  CB_284
REMARK  163  A    between atoms: CB_284  and  CG_285
REMARK  164  A    between atoms: CG_285  and  CD_286
REMARK  165  A    between atoms: CD_286  and  CE_287
REMARK  166  A    between atoms: CE_287  and  NZ_288
REMARK  167  A    between atoms: N_289  and  CA_290
REMARK  168  A    between atoms: CA_290  and  C_291
REMARK  169  A    between atoms: CA_290  and  CB_293
REMARK  170  A    between atoms: CB_293  and  CG2_294
REMARK  171  A    between atoms: CB_293  and  CG1_295
REMARK  172  A    between atoms: N_296  and  CA_297
REMARK  173  A    between atoms: CA_297  and  C_298
REMARK  174  A    between atoms: CA_297  and  CB_300
REMARK  175  A    between atoms: CB_300  and  CG_301
REMARK  176  A    between atoms: CG_301  and  CD1_302
REMARK  177  A    between atoms: CG_301  and  CD2_303
REMARK  178  A    between atoms: N_304  and  CA_305
REMARK  179  A    between atoms: CA_305  and  C_306
REMARK  180  A    between atoms: CA_305  and  CB_308
REMARK  181  A    between atoms: CB_308  and  CG_309
REMARK  182  A    between atoms: N_315  and  CA_316
REMARK  183  A    between atoms: CA_316  and  C_317
REMARK  184  A    between atoms: CA_316  and  CB_319
REMARK  185  A    between atoms: CB_319  and  CG_320
REMARK  186  A    between atoms: CG_320  and  CD_321
REMARK  187  A    between atoms: CD_321  and  CE_322
REMARK  188  A    between atoms: CE_322  and  NZ_323
REMARK  189  A    between atoms: N_324  and  CA_325
REMARK  190  A    between atoms: CA_325  and  C_326
REMARK  191  A    between atoms: CA_325  and  CB_328
REMARK  192  A    between atoms: N_329  and  CA_330
REMARK  193  A    between atoms: CA_330  and  C_331
REMARK  194  A    between atoms: CA_330  and  CB_333
REMARK  195  A    between atoms: CB_333  and  CG_334
REMARK  196  A    between atoms: CG_334  and  CD_335
REMARK  197  A    between atoms: N_338  and  CA_339
REMARK  198  A    between atoms: CA_339  and  C_340
REMARK  199  A    between atoms: CA_339  and  CB_342
REMARK  200  A    between atoms: CB_342  and  CG_343
REMARK  201  A    between atoms: CG_343  and  CD1_344
REMARK  202  A    between atoms: CG_343  and  CD2_345
REMARK  203  A    between atoms: N_346  and  CA_347
REMARK  204  A    between atoms: CA_347  and  C_348
REMARK  205  A    between atoms: CA_347  and  CB_350
REMARK  206  A    between atoms: CB_350  and  CG_351
REMARK  207  A    between atoms: CG_351  and  CD_352
REMARK  208  A    between atoms: N_355  and  C_356
REMARK  209  A    between atoms: C_356  and  C_357
REMARK  210  A    between atoms: C_356  and  C_359
REMARK  211  A    between atoms: C_359  and  C_360
REMARK  212  A    between atoms: N_361  and  CA_362
REMARK  213  A    between atoms: CA_362  and  C_363
REMARK  214  A    between atoms: CA_362  and  CB_365
REMARK  215  A    between atoms: N_366  and  CA_367
REMARK  216  A    between atoms: CA_367  and  C_368
REMARK  217  A    between atoms: N_370  and  CA_371
REMARK  218  A    between atoms: CA_371  and  C_372
REMARK  219  A    between atoms: CA_371  and  CB_374
REMARK  220  A    between atoms: CB_374  and  CG2_375
REMARK  221  A    between atoms: CB_374  and  CG1_376
REMARK  222  A    between atoms: N_377  and  CA_378
REMARK  223  A    between atoms: CA_378  and  C_379
REMARK  224  A    between atoms: CA_378  and  CB_381
REMARK  225  A    between atoms: CB_381  and  CG_382
REMARK  226  A    between atoms: CG_382  and  CD_383
REMARK  227  A    between atoms: N_386  and  CA_387
REMARK  228  A    between atoms: CA_387  and  C_388
REMARK  229  A    between atoms: CA_387  and  CB_390
REMARK  230  A    between atoms: CB_390  and  CG_391
REMARK  231  A    between atoms: N_396  and  CA_397
REMARK  232  A    between atoms: CA_397  and  C_398
REMARK  233  A    between atoms: CA_397  and  CB_400
REMARK  234  A    between atoms: CB_400  and  CG_401
REMARK  235  A    between atoms: CG_401  and  CD_402
REMARK  236  A    between atoms: N_405  and  CA_406
REMARK  237  A    between atoms: CA_406  and  C_407
REMARK  238  A    between atoms: CA_406  and  CB_409
REMARK  239  A    between atoms: CB_409  and  CG_410
REMARK  240  A    between atoms: CG_410  and  CD2_411
REMARK  241  A    between atoms: CG_410  and  CD1_412
REMARK  242  A    between atoms: N_413  and  CA_414
REMARK  243  A    between atoms: CA_414  and  C_415
REMARK  244  A    between atoms: CA_414  and  CB_417
REMARK  245  A    between atoms: CB_417  and  CG_418
REMARK  246  A    between atoms: CG_418  and  CD_419
REMARK  247  A    between atoms: CD_419  and  NE_420
REMARK  248  A    between atoms: N_424  and  CA_425
REMARK  249  A    between atoms: CA_425  and  C_426
REMARK  250  A    between atoms: CA_425  and  CB_428
REMARK  251  A    between atoms: CB_428  and  CG_429
REMARK  252  A    between atoms: CG_429  and  CD_430
REMARK  253  A    between atoms: CD_430  and  NE_431
REMARK  254  A    between atoms: N_435  and  CA_436
REMARK  255  A    between atoms: CA_436  and  C_437
REMARK  256  A    between atoms: CA_436  and  CB_439
REMARK  257  A    between atoms: CB_439  and  CG_440
REMARK  258  A    between atoms: CG_440  and  CD_441
REMARK  259  A    between atoms: N_444  and  CA_445
REMARK  260  A    between atoms: CA_445  and  C_446
REMARK  261  A    between atoms: CA_445  and  CB_448
REMARK  262  A    between atoms: CB_448  and  CG1_449
REMARK  263  A    between atoms: CB_448  and  CG2_450
REMARK  264  A    between atoms: N_451  and  C_452
REMARK  265  A    between atoms: C_452  and  C_453
REMARK  266  A    between atoms: C_452  and  C_455
REMARK  267  A    between atoms: C_455  and  C_456
REMARK  268  A    between atoms: N_457  and  CA_458
REMARK  269  A    between atoms: CA_458  and  C_459
REMARK  270  A    between atoms: CA_458  and  CB_461
REMARK  271  A    between atoms: CB_461  and  CG1_462
REMARK  272  A    between atoms: CB_461  and  CG2_463
REMARK  273  A    between atoms: CG1_462  and  CD1_464
REMARK  274  A    between atoms: N_465  and  CA_466
REMARK  275  A    between atoms: CA_466  and  C_467
REMARK  276  A    between atoms: CA_466  and  CB_469
REMARK  277  A    between atoms: CB_469  and  CG_470
REMARK  278  A    between atoms: CG_470  and  CD_471
REMARK  279  A    between atoms: N_474  and  C_475
REMARK  280  A    between atoms: C_475  and  C_476
REMARK  281  A    between atoms: C_475  and  C_478
REMARK  282  A    between atoms: C_478  and  O_479
REMARK  283  A    between atoms: N_480  and  C_481
REMARK  284  A    between atoms: C_481  and  C_482
REMARK  285  A    between atoms: C_481  and  C_484
REMARK  286  A    between atoms: C_484  and  C_485
REMARK  287  A    between atoms: N_490  and  C_491
REMARK  288  A    between atoms: C_491  and  C_492
REMARK  289  A    between atoms: C_491  and  C_494
REMARK  290  A    between atoms: C_494  and  C_495
REMARK  291  A    between atoms: C_495  and  C_496
REMARK  292  A    between atoms: C_495  and  C_497
REMARK  293  A    between atoms: N_498  and  C_499
REMARK  294  A    between atoms: C_499  and  C_500
REMARK  295  A    between atoms: C_499  and  C_502
REMARK  296  A    between atoms: C_502  and  C_503
REMARK  297  A    between atoms: C_503  and  C_504
REMARK  298  A    between atoms: C_504  and  N_505
REMARK  299  A    between atoms: N_509  and  C_510
REMARK  300  A    between atoms: C_510  and  C_511
REMARK  301  A    between atoms: C_510  and  C_513
REMARK  302  A    between atoms: C_513  and  C_514
REMARK  303  A    between atoms: C_520  and  C_521
REMARK  304  A    between atoms: N_526  and  C_527
REMARK  305  A    between atoms: C_527  and  C_528
REMARK  306  A    between atoms: C_527  and  C_530
REMARK  307  A    between atoms: C_530  and  C_531
REMARK  308  A    between atoms: N_534  and  C_535
REMARK  309  A    between atoms: C_535  and  C_536
REMARK  310  A    between atoms: C_535  and  C_538
REMARK  311  A    between atoms: C_538  and  C_539
REMARK  312  A    between atoms: C_538  and  C_540
REMARK  313  A    between atoms: C_539  and  C_541
REMARK  314  A    between atoms: N_542  and  C_543
REMARK  315  A    between atoms: C_543  and  C_544
REMARK  316  A    between atoms: C_543  and  C_546
REMARK  317  A    between atoms: C_546  and  C_547
REMARK  318  A    between atoms: C_547  and  C_548
REMARK  319  A    between atoms: C_547  and  C_549
REMARK  320  A    between atoms: N_550  and  C_551
REMARK  321  A    between atoms: C_551  and  C_552
REMARK  322  A    between atoms: C_551  and  C_554
REMARK  323  A    between atoms: C_554  and  C_555
REMARK  324  A    between atoms: C_555  and  C_556
REMARK  325  A    between atoms: C_556  and  N_557
REMARK  326  A    between atoms: N_561  and  C_562
REMARK  327  A    between atoms: C_562  and  C_567
REMARK  328  A    between atoms: C_563  and  C_564
REMARK  329  A    between atoms: C_568  and  C_569
REMARK  330  A    between atoms: C_568  and  C_571
REMARK  331  A    between atoms: C_569  and  C_572
REMARK  332  A    between atoms: C_569  and  C_573
REMARK  333  A    between atoms: C_570  and  C_573
REMARK  334  A    between atoms: N_574  and  CA_575
REMARK  335  A    between atoms: CA_575  and  C_576
REMARK  336  A    between atoms: CA_575  and  CB_578
REMARK  337  A    between atoms: CB_578  and  CG_579
REMARK  338  A    between atoms: CZ_584  and  OH_585
REMARK  339  A    between atoms: N_586  and  CA_587
REMARK  340  A    between atoms: CA_587  and  C_588
REMARK  341  A    between atoms: N_590  and  CA_591
REMARK  342  A    between atoms: CA_591  and  C_592
REMARK  343  A    between atoms: CA_591  and  CB_594
REMARK  344  A    between atoms: CB_594  and  CG_595
REMARK  345  A    between atoms: CZ_600  and  OH_601
REMARK  346  A    between atoms: N_602  and  CA_603
REMARK  347  A    between atoms: CA_603  and  C_604
REMARK  348  A    between atoms: CA_603  and  CB_606
REMARK  349  A    between atoms: CB_606  and  CG_607
REMARK  350  A    between atoms: N_613  and  CA_614
REMARK  351  A    between atoms: CA_614  and  C_615
REMARK  352  A    between atoms: CA_614  and  CB_617
REMARK  353  A    between atoms: CB_617  and  CG_618
REMARK  354  A    between atoms: N_623  and  CA_624
REMARK  355  A    between atoms: CA_624  and  C_625
REMARK  356  A    between atoms: CA_624  and  CB_627
REMARK  357  A    between atoms: CB_627  and  CG_628
REMARK  358  A    between atoms: N_631  and  CA_632
REMARK  359  A    between atoms: CA_632  and  C_633
REMARK  360  A    between atoms: CA_632  and  CB_635
REMARK  361  A    between atoms: N_636  and  CA_637
REMARK  362  A    between atoms: CA_637  and  C_638
REMARK  363  A    between atoms: CA_637  and  CB_640
REMARK  364  A    between atoms: CB_640  and  OG1_641
REMARK  365  A    between atoms: CB_640  and  CG2_642
REMARK  366  A    between atoms: N_643  and  CA_644
REMARK  367  A    between atoms: CA_644  and  C_645
REMARK  368  A    between atoms: CA_644  and  CB_647
REMARK  369  A    between atoms: CB_647  and  CG_648
REMARK  370  A    between atoms: CG_648  and  CD_649
REMARK  371  A    between atoms: CD_649  and  NE_650
REMARK  372  A    between atoms: N_654  and  CA_655
REMARK  373  A    between atoms: CA_655  and  C_656
REMARK  374  A    between atoms: CA_655  and  CB_658
REMARK  375  A    between atoms: CB_658  and  CG1_659
REMARK  376  A    between atoms: CB_658  and  CG2_660
REMARK  377  A    between atoms: N_661  and  CA_662
REMARK  378  A    between atoms: CA_662  and  C_663
REMARK  379  A    between atoms: CA_662  and  CB_665
REMARK  380  A    between atoms: CB_665  and  CG_666
REMARK  381  A    between atoms: CZ_671  and  OH_672
REMARK  382  A    between atoms: N_673  and  CA_674
REMARK  383  A    between atoms: CA_674  and  C_675
REMARK  384  A    between atoms: CA_674  and  CB_677
REMARK  385  A    between atoms: CB_677  and  CG_678
REMARK  386  A    between atoms: CG_678  and  CD2_679
REMARK  387  A    between atoms: CG_678  and  CD1_680
REMARK  388  A    between atoms: N_681  and  CA_682
REMARK  389  A    between atoms: CA_682  and  C_683
REMARK  390  A    between atoms: CA_682  and  CB_685
REMARK  391  A    between atoms: CB_685  and  CG1_686
REMARK  392  A    between atoms: CB_685  and  CG2_687
REMARK  393  A    between atoms: CG1_686  and  CD1_688
REMARK  394  A    between atoms: N_689  and  CA_690
REMARK  395  A    between atoms: CA_690  and  C_691
REMARK  396  A    between atoms: CA_690  and  CB_693
REMARK  397  A    between atoms: CB_693  and  CG_694
REMARK  398  A    between atoms: CG_694  and  CD2_695
REMARK  399  A    between atoms: CG_694  and  CD1_696
REMARK  400  A    between atoms: N_697  and  CA_698
REMARK  401  A    between atoms: CA_698  and  C_699
REMARK  402  A    between atoms: CA_698  and  CB_701
REMARK  403  A    between atoms: CB_701  and  CG_702
REMARK  404  A    between atoms: CG_702  and  CD_703
REMARK  405  A    between atoms: N_706  and  CA_707
REMARK  406  A    between atoms: CA_707  and  C_708
REMARK  407  A    between atoms: CA_707  and  CB_710
REMARK  408  A    between atoms: CB_710  and  CG_711
REMARK  409  A    between atoms: CZ_716  and  OH_717
REMARK  410  A    between atoms: N_718  and  CA_719
REMARK  411  A    between atoms: CA_719  and  C_720
REMARK  412  A    between atoms: CA_719  and  CB_722
REMARK  413  A    between atoms: CA_724  and  C_725
REMARK  414  A    between atoms: N_730  and  CA_731
REMARK  415  A    between atoms: CA_731  and  C_732
REMARK  416  A    between atoms: CA_731  and  CB_734
REMARK  417  A    between atoms: CB_734  and  CG_735
REMARK  418  A    between atoms: CG_735  and  CD1_736
REMARK  419  A    between atoms: CG_735  and  CD2_737
REMARK  420  A    between atoms: N_738  and  CA_739
REMARK  421  A    between atoms: CA_739  and  C_740
REMARK  422  A    between atoms: N_742  and  CA_743
REMARK  423  A    between atoms: CA_743  and  C_744
REMARK  424  A    between atoms: CA_743  and  CB_746
REMARK  425  A    between atoms: CB_746  and  OG1_747
REMARK  426  A    between atoms: CB_746  and  CG2_748
REMARK  427  A    between atoms: N_749  and  CA_750
REMARK  428  A    between atoms: CA_750  and  C_751
REMARK  429  A    between atoms: CA_750  and  CB_753
REMARK  430  A    between atoms: CB_753  and  CG2_754
REMARK  431  A    between atoms: CB_753  and  CG1_755
REMARK  432  A    between atoms: N_756  and  CA_757
REMARK  433  A    between atoms: CA_757  and  C_758
REMARK  434  A    between atoms: CA_757  and  CB_760
REMARK  435  A    between atoms: CB_760  and  CG_761
REMARK  436  A    between atoms: CZ_766  and  OH_767
REMARK  437  A    between atoms: N_768  and  C_769
REMARK  438  A    between atoms: C_769  and  C_770
REMARK  439  A    between atoms: C_769  and  C_772
REMARK  440  A    between atoms: C_772  and  C_773
REMARK  441  A    between atoms: N_774  and  CA_775
REMARK  442  A    between atoms: CA_775  and  C_776
REMARK  443  A    between atoms: CA_775  and  CB_778
REMARK  444  A    between atoms: CB_778  and  CG_779
REMARK  445  A    between atoms: CG_779  and  CD_780
REMARK  446  A    between atoms: N_783  and  CA_784
REMARK  447  A    between atoms: CA_784  and  C_785
REMARK  448  A    between atoms: CA_784  and  CB_787
REMARK  449  A    between atoms: CB_787  and  CG_788
REMARK  450  A    between atoms: CG_788  and  CD2_789
REMARK  451  A    between atoms: CG_788  and  CD1_790
REMARK  452  A    between atoms: N_791  and  CA_792
REMARK  453  A    between atoms: CA_792  and  C_793
REMARK  454  A    between atoms: CA_792  and  CB_795
REMARK  455  A    between atoms: CB_795  and  CG_796
REMARK  456  A    between atoms: CG_796  and  CD_797
REMARK  457  A    between atoms: N_800  and  CA_801
REMARK  458  A    between atoms: CA_801  and  C_802
REMARK  459  A    between atoms: CA_801  and  CB_804
REMARK  460  A    between atoms: CB_804  and  CG_805
REMARK  461  A    between atoms: CG_805  and  CD_806
REMARK  462  A    between atoms: CD_806  and  CE_807
REMARK  463  A    between atoms: CE_807  and  NZ_808
REMARK  464  A    between atoms: N_809  and  CA_810
REMARK  465  A    between atoms: CA_810  and  C_811
REMARK  466  A    between atoms: CA_810  and  CB_813
REMARK  467  A    between atoms: CB_813  and  CG_814
REMARK  468  A    between atoms: CG_814  and  CD1_815
REMARK  469  A    between atoms: CG_814  and  CD2_816
REMARK  470  A    between atoms: N_817  and  CA_818
REMARK  471  A    between atoms: CA_818  and  C_819
REMARK  472  A    between atoms: CA_818  and  CB_821
REMARK  473  A    between atoms: CB_821  and  OG_822
REMARK  474  A    between atoms: N_823  and  CA_824
REMARK  475  A    between atoms: CA_824  and  C_825
REMARK  476  A    between atoms: CA_824  and  CB_827
REMARK  477  A    between atoms: CB_827  and  CG_828
REMARK  478  A    between atoms: CG_828  and  CD_829
REMARK  479  A    between atoms: CD_829  and  CE_830
REMARK  480  A    between atoms: CE_830  and  NZ_831
REMARK  481  A    between atoms: N_832  and  CA_833
REMARK  482  A    between atoms: CA_833  and  C_834
REMARK  483  A    between atoms: CA_833  and  CB_836
REMARK  484  A    between atoms: CB_836  and  CG_837
REMARK  485  A    between atoms: N_843  and  CA_844
REMARK  486  A    between atoms: CA_844  and  C_845
REMARK  487  A    between atoms: CA_844  and  CB_847
REMARK  488  A    between atoms: CB_847  and  CG_848
REMARK  489  A    between atoms: N_851  and  CA_852
REMARK  490  A    between atoms: CA_852  and  C_853
REMARK  491  A    between atoms: CA_852  and  CB_855
REMARK  492  A    between atoms: CB_855  and  CG_856
REMARK  493  A    between atoms: CG_856  and  CD_857
REMARK  494  A    between atoms: N_860  and  CA_861
REMARK  495  A    between atoms: CA_861  and  C_862
REMARK  496  A    between atoms: CA_861  and  CB_864
REMARK  497  A    between atoms: CB_864  and  CG_865
REMARK  498  A    between atoms: CG_865  and  CD_866
REMARK  499  A    between atoms: N_869  and  CA_870
REMARK  500  A    between atoms: CA_870  and  C_871
REMARK  501  A    between atoms: CA_870  and  CB_873
REMARK  502  A    between atoms: CB_873  and  CG_874
REMARK  503  A    between atoms: CG_874  and  CD_875
REMARK  504  A    between atoms: CD_875  and  NE_876
REMARK  505  A    between atoms: N_880  and  CA_881
REMARK  506  A    between atoms: CA_881  and  C_882
REMARK  507  A    between atoms: CA_881  and  CB_884
REMARK  508  A    between atoms: CB_884  and  OG1_885
REMARK  509  A    between atoms: CB_884  and  CG2_886
REMARK  510  A    between atoms: N_887  and  CA_888
REMARK  511  A    between atoms: CA_888  and  C_889
REMARK  512  A    between atoms: CA_888  and  CB_891
REMARK  513  A    between atoms: N_892  and  CA_893
REMARK  514  A    between atoms: CA_893  and  C_894
REMARK  515  A    between atoms: CA_893  and  CB_896
REMARK  516  A    between atoms: CB_896  and  OG1_897
REMARK  517  A    between atoms: CB_896  and  CG2_898
REMARK  518  A    between atoms: N_899  and  CA_900
REMARK  519  A    between atoms: CA_900  and  C_901
REMARK  520  A    between atoms: CA_900  and  CB_903
REMARK  521  A    between atoms: CB_903  and  CG_904
REMARK  522  A    between atoms: CZ_909  and  OH_910
REMARK  523  A    between atoms: N_911  and  CA_912
REMARK  524  A    between atoms: CA_912  and  C_913
REMARK  525  A    between atoms: CA_912  and  CB_915
REMARK  526  A    between atoms: CB_915  and  CG1_916
REMARK  527  A    between atoms: CB_915  and  CG2_917
REMARK  528  A    between atoms: CG1_916  and  CD1_918
REMARK  529  A    between atoms: N_919  and  CA_920
REMARK  530  A    between atoms: CA_920  and  C_921
REMARK  531  A    between atoms: CA_920  and  CB_923
REMARK  532  A    between atoms: CB_923  and  OG1_924
REMARK  533  A    between atoms: CB_923  and  CG2_925
REMARK  534  A    between atoms: N_926  and  CA_927
REMARK  535  A    between atoms: CA_927  and  C_928
REMARK  536  A    between atoms: CA_927  and  CB_930
REMARK  537  A    between atoms: CB_930  and  CG_931
REMARK  538  A    between atoms: CG_931  and  CD_932
REMARK  539  A    between atoms: N_935  and  CA_936
REMARK  540  A    between atoms: CA_936  and  C_937
REMARK  541  A    between atoms: CA_936  and  CB_939
REMARK  542  A    between atoms: CB_939  and  CG_940
REMARK  543  A    between atoms: CG_940  and  CD2_941
REMARK  544  A    between atoms: CG_940  and  CD1_942
REMARK  545  A    between atoms: N_943  and  CA_944
REMARK  546  A    between atoms: CA_944  and  C_945
REMARK  547  A    between atoms: CA_944  and  CB_947
REMARK  548  A    between atoms: N_948  and  CA_949
REMARK  549  A    between atoms: CA_949  and  C_950
REMARK  550  A    between atoms: CA_949  and  CB_952
REMARK  551  A    between atoms: CB_952  and  CG_953
REMARK  552  A    between atoms: N_956  and  CA_957
REMARK  553  A    between atoms: CA_957  and  C_958
REMARK  554  A    between atoms: CA_957  and  CB_960
REMARK  555  A    between atoms: N_961  and  CA_962
REMARK  556  A    between atoms: CA_962  and  C_963
REMARK  557  A    between atoms: CA_962  and  CB_965
REMARK  558  A    between atoms: CB_965  and  CG_966
REMARK  559  A    between atoms: CG_966  and  CD2_967
REMARK  560  A    between atoms: CG_966  and  CD1_968
REMARK  561  A    between atoms: N_969  and  CA_970
REMARK  562  A    between atoms: CA_970  and  C_971
REMARK  563  A    between atoms: CA_970  and  CB_973
REMARK  564  A    between atoms: CB_973  and  OG_974
REMARK  565  A    between atoms: N_975  and  CA_976
REMARK  566  A    between atoms: CA_976  and  C_977
REMARK  567  A    between atoms: CA_976  and  CB_979
REMARK  568  A    between atoms: CB_979  and  CG_980
REMARK  569  A    between atoms: CZ_985  and  OH_986
REMARK  570  A    between atoms: N_987  and  CA_988
REMARK  571  A    between atoms: CA_988  and  C_989
REMARK  572  A    between atoms: CA_988  and  CB_991
REMARK  573  A    between atoms: CB_991  and  SG_992
REMARK  574  A    between atoms: N_993  and  CA_994
REMARK  575  A    between atoms: CA_994  and  C_995
REMARK  576  A    between atoms: CA_994  and  CB_997
REMARK  577  A    between atoms: CB_997  and  CG_998
REMARK  578  A    between atoms: N_1003  and  C_1004
REMARK  579  A    between atoms: C_1004  and  C_1005
REMARK  580  A    between atoms: C_1004  and  C_1007
REMARK  581  A    between atoms: C_1007  and  O_1008
REMARK  582  A    between atoms: N_1009  and  C_1010
REMARK  583  A    between atoms: C_1010  and  C_1011
REMARK  584  A    between atoms: C_1010  and  C_1013
REMARK  585  A    between atoms: C_1013  and  C_1014
REMARK  586  A    between atoms: C_1014  and  C_1015
REMARK  587  A    between atoms: C_1015  and  C_1016
REMARK  588  A    between atoms: C_1016  and  N_1017
REMARK  589  A    between atoms: N_1018  and  C_1019
REMARK  590  A    between atoms: C_1020  and  C_1021
REMARK  591  A    between atoms: C_1020  and  C_1024
REMARK  592  A    between atoms: C_1023  and  C_1026
REMARK  593  A    between atoms: C_1025  and  C_1026
REMARK  594  A    between atoms: C_1027  and  N_1029
REMARK  595  A    between atoms: C_1028  and  N_1030
REMARK  596  A    between atoms: N_1037  and  C_1038
REMARK  597  A    between atoms: C_1038  and  C_1039
REMARK  598  A    between atoms: C_1038  and  C_1041
REMARK  599  A    between atoms: C_1041  and  C_1042
REMARK  600  A    between atoms: C_1041  and  C_1043
REMARK  601  A    between atoms: N_1044  and  C_1045
REMARK  602  A    between atoms: C_1045  and  C_1046
REMARK  603  A    between atoms: C_1045  and  C_1048
REMARK  604  A    between atoms: C_1048  and  C_1049
REMARK  605  A    between atoms: C_1048  and  C_1050
REMARK  606  A    between atoms: C_1049  and  C_1051
REMARK  607  A    between atoms: N_1052  and  C_1053
REMARK  608  A    between atoms: C_1053  and  C_1054
REMARK  609  A    between atoms: C_1053  and  C_1056
REMARK  610  A    between atoms: C_1056  and  C_1057
REMARK  611  A    between atoms: N_1062  and  C_1063
REMARK  612  A    between atoms: C_1063  and  C_1064
REMARK  613  A    between atoms: C_1063  and  C_1066
REMARK  614  A    between atoms: C_1066  and  C_1067
REMARK  615  A    between atoms: C_1067  and  C_1068
REMARK  616  A    between atoms: C_1068  and  N_1069
REMARK  617  A    between atoms: N_1073  and  C_1074
REMARK  618  A    between atoms: C_1074  and  C_1077
REMARK  619  A    between atoms: C_1077  and  C_1078
REMARK  620  A    between atoms: N_1081  and  C_1084
REMARK  621  A    between atoms: C_1083  and  C_1085
REMARK  622  A    between atoms: C_1085  and  C_1086
REMARK  623  A    between atoms: C_1085  and  O_1087
REMARK  624  A    between atoms: C_1085  and  N_1097
REMARK  625  A    between atoms: C_1089  and  C_1094
REMARK  626  A    between atoms: C_1090  and  C_1091
REMARK  627  A    between atoms: C_1093  and  C_1094
REMARK  628  A    between atoms: C_1098  and  C_1099
REMARK  629  A    between atoms: C_1098  and  C_1101
REMARK  630  A    between atoms: C_1101  and  C_1102
REMARK  631  A    between atoms: C_1102  and  C_1103
REMARK  632  A    between atoms: C_1103  and  C_1104
REMARK  633  A    between atoms: C_1104  and  N_1105
REMARK  634  A    between atoms: C_1107  and  C_1108
REMARK  635  A    between atoms: N_1113  and  CA_1114
REMARK  636  A    between atoms: CA_1114  and  C_1115
REMARK  637  A    between atoms: CA_1114  and  CB_1117
REMARK  638  A    between atoms: CB_1117  and  CG_1118
REMARK  639  A    between atoms: CG_1118  and  CD_1119
REMARK  640  A    between atoms: N_1122  and  CA_1123
REMARK  641  A    between atoms: CA_1123  and  C_1124
REMARK  642  A    between atoms: CA_1123  and  CB_1126
REMARK  643  A    between atoms: CB_1126  and  CG_1127
REMARK  644  A    between atoms: N_1130  and  CA_1131
REMARK  645  A    between atoms: CA_1131  and  C_1132
REMARK  646  A    between atoms: CA_1131  and  CB_1134
REMARK  647  A    between atoms: CB_1134  and  CG_1135
REMARK  648  A    between atoms: CG_1135  and  CD2_1136
REMARK  649  A    between atoms: CG_1135  and  CD1_1137
REMARK  650  A    between atoms: N_1138  and  CA_1139
REMARK  651  A    between atoms: CA_1139  and  C_1140
REMARK  652  A    between atoms: CA_1139  and  CB_1142
REMARK  653  A    between atoms: CB_1142  and  CG_1143
REMARK  654  A    between atoms: CG_1143  and  CD1_1144
REMARK  655  A    between atoms: CG_1143  and  CD2_1145
REMARK  656  A    between atoms: N_1146  and  CA_1147
REMARK  657  A    between atoms: CA_1147  and  C_1148
REMARK  658  A    between atoms: CA_1147  and  CB_1150
REMARK  659  A    between atoms: CB_1150  and  CG_1151
REMARK  660  A    between atoms: CG_1151  and  CD2_1152
REMARK  661  A    between atoms: CG_1151  and  CD1_1153
REMARK  662  A    between atoms: N_1154  and  CA_1155
REMARK  663  A    between atoms: CA_1155  and  C_1156
REMARK  664  A    between atoms: N_1158  and  CA_1159
REMARK  665  A    between atoms: CA_1159  and  C_1160
REMARK  666  A    between atoms: CA_1159  and  CB_1162
REMARK  667  A    between atoms: CB_1162  and  OG_1163
REMARK  668  A    between atoms: N_1164  and  CA_1165
REMARK  669  A    between atoms: CA_1165  and  C_1166
REMARK  670  A    between atoms: CA_1165  and  CB_1168
REMARK  671  A    between atoms: N_1169  and  CA_1170
REMARK  672  A    between atoms: CA_1170  and  C_1171
REMARK  673  A    between atoms: N_1173  and  CA_1174
REMARK  674  A    between atoms: CA_1174  and  C_1175
REMARK  675  A    between atoms: CA_1174  and  CB_1177
REMARK  676  A    between atoms: CB_1177  and  CG_1178
REMARK  677  A    between atoms: CG_1178  and  CD_1179
REMARK  678  A    between atoms: N_1182  and  CA_1183
REMARK  679  A    between atoms: CA_1183  and  C_1184
REMARK  680  A    between atoms: CA_1183  and  CB_1186
REMARK  681  A    between atoms: CB_1186  and  CG_1187
REMARK  682  A    between atoms: CG_1187  and  CD2_1188
REMARK  683  A    between atoms: CG_1187  and  CD1_1189
REMARK  684  A    between atoms: N_1190  and  CA_1191
REMARK  685  A    between atoms: CA_1191  and  C_1192
REMARK  686  A    between atoms: CA_1191  and  CB_1194
REMARK  687  A    between atoms: CB_1194  and  CG_1195
REMARK  688  A    between atoms: CG_1195  and  CD_1196
REMARK  689  A    between atoms: CD_1196  and  CE_1197
REMARK  690  A    between atoms: CE_1197  and  NZ_1198
REMARK  691  A    between atoms: N_1199  and  CA_1200
REMARK  692  A    between atoms: CA_1200  and  C_1201
REMARK  693  A    between atoms: CA_1200  and  CB_1203
REMARK  694  A    between atoms: CB_1203  and  CG1_1204
REMARK  695  A    between atoms: CB_1203  and  CG2_1205
REMARK  696  A    between atoms: CG1_1204  and  CD1_1206
REMARK  697  A    between atoms: N_1207  and  CA_1208
REMARK  698  A    between atoms: CA_1208  and  C_1209
REMARK  699  A    between atoms: CA_1208  and  CB_1211
REMARK  700  A    between atoms: N_1212  and  CA_1213
REMARK  701  A    between atoms: CA_1213  and  C_1214
REMARK  702  A    between atoms: CA_1213  and  CB_1216
REMARK  703  A    between atoms: CB_1216  and  CG_1217
REMARK  704  A    between atoms: N_1220  and  CA_1221
REMARK  705  A    between atoms: CA_1221  and  C_1222
REMARK  706  A    between atoms: CA_1221  and  CB_1224
REMARK  707  A    between atoms: CB_1224  and  CG_1225
REMARK  708  A    between atoms: N_1231  and  CA_1232
REMARK  709  A    between atoms: CA_1232  and  C_1233
REMARK  710  A    between atoms: N_1235  and  CA_1236
REMARK  711  A    between atoms: CA_1236  and  C_1237
REMARK  712  A    between atoms: CA_1236  and  CB_1239
REMARK  713  A    between atoms: CB_1239  and  CG_1240
REMARK  714  A    between atoms: N_1249  and  CA_1250
REMARK  715  A    between atoms: CA_1250  and  C_1251
REMARK  716  A    between atoms: CA_1250  and  CB_1253
REMARK  717  A    between atoms: CB_1253  and  OG_1254
REMARK  718  A    between atoms: N_1255  and  CA_1256
REMARK  719  A    between atoms: CA_1256  and  C_1257
REMARK  720  A    between atoms: CA_1256  and  CB_1259
REMARK  721  A    between atoms: CB_1259  and  CG2_1260
REMARK  722  A    between atoms: CB_1259  and  CG1_1261
REMARK  723  A    between atoms: N_1262  and  CA_1263
REMARK  724  A    between atoms: CA_1263  and  C_1264
REMARK  725  A    between atoms: CA_1263  and  CB_1266
REMARK  726  A    between atoms: CB_1266  and  CG_1267
REMARK  727  A    between atoms: N_1272  and  CA_1273
REMARK  728  A    between atoms: CA_1273  and  C_1274
REMARK  729  A    between atoms: CA_1273  and  CB_1276
REMARK  730  A    between atoms: CA_1278  and  C_1279
REMARK  731  A    between atoms: N_1284  and  CA_1285
REMARK  732  A    between atoms: CA_1285  and  C_1286
REMARK  733  A    between atoms: CA_1285  and  CB_1288
REMARK  734  A    between atoms: CB_1288  and  OG_1289
REMARK  735  A    between atoms: N_1290  and  CA_1291
REMARK  736  A    between atoms: CA_1291  and  C_1292
REMARK  737  A    between atoms: CA_1291  and  CB_1294
REMARK  738  A    between atoms: CB_1294  and  OG_1295
REMARK  739  A    between atoms: N_1296  and  C_1297
REMARK  740  A    between atoms: C_1297  and  C_1298
REMARK  741  A    between atoms: C_1297  and  C_1300
REMARK  742  A    between atoms: C_1300  and  C_1301
REMARK  743  A    between atoms: C_1301  and  C_1302
REMARK  744  A    between atoms: N_1303  and  CA_1304
REMARK  745  A    between atoms: CA_1304  and  C_1305
REMARK  746  A    between atoms: CA_1304  and  CB_1307
REMARK  747  A    between atoms: CB_1307  and  CG_1308
REMARK  748  A    between atoms: CG_1308  and  CD_1309
REMARK  749  A    between atoms: CD_1309  and  NE_1310
REMARK  750  A    between atoms: N_1314  and  CA_1315
REMARK  751  A    between atoms: CA_1315  and  C_1316
REMARK  752  A    between atoms: CA_1315  and  CB_1318
REMARK  753  A    between atoms: CB_1318  and  OG1_1319
REMARK  754  A    between atoms: CB_1318  and  CG2_1320
REMARK  755  A    between atoms: N_1321  and  C_1322
REMARK  756  A    between atoms: C_1322  and  C_1323
REMARK  757  A    between atoms: C_1322  and  C_1325
REMARK  758  A    between atoms: C_1325  and  C_1326
REMARK  759  A    between atoms: C_1326  and  C_1327
REMARK  760  A    between atoms: C_1326  and  C_1328
REMARK  761  A    between atoms: N_1329  and  C_1330
REMARK  762  A    between atoms: C_1330  and  C_1331
REMARK  763  A    between atoms: C_1330  and  C_1333
REMARK  764  A    between atoms: N_1334  and  C_1335
REMARK  765  A    between atoms: C_1335  and  C_1336
REMARK  766  A    between atoms: N_1338  and  C_1339
REMARK  767  A    between atoms: C_1339  and  C_1340
REMARK  768  A    between atoms: C_1339  and  C_1342
REMARK  769  A    between atoms: C_1342  and  O_1343
REMARK  770  A    between atoms: C_1342  and  C_1344
REMARK  771  A    between atoms: N_1345  and  C_1346
REMARK  772  A    between atoms: C_1346  and  C_1347
REMARK  773  A    between atoms: C_1346  and  C_1349
REMARK  774  A    between atoms: C_1349  and  C_1350
REMARK  775  A    between atoms: C_1350  and  C_1351
REMARK  776  A    between atoms: C_1350  and  C_1352
REMARK  777  A    between atoms: N_1353  and  C_1354
REMARK  778  A    between atoms: C_1354  and  C_1355
REMARK  779  A    between atoms: C_1354  and  C_1357
REMARK  780  A    between atoms: C_1357  and  C_1358
REMARK  781  A    between atoms: N_1361  and  C_1362
REMARK  782  A    between atoms: C_1362  and  C_1363
REMARK  783  A    between atoms: C_1362  and  C_1365
REMARK  784  A    between atoms: C_1365  and  C_1366
REMARK  785  A    between atoms: C_1371  and  O_1372
REMARK  786  A    between atoms: N_1373  and  C_1374
REMARK  787  A    between atoms: C_1374  and  C_1375
REMARK  788  A    between atoms: C_1374  and  C_1377
REMARK  789  A    between atoms: C_1377  and  C_1378
REMARK  790  A    between atoms: C_1378  and  C_1379
REMARK  791  A    between atoms: C_1378  and  C_1380
REMARK  792  A    between atoms: C_1382  and  C_1383
REMARK  793  A    between atoms: C_1389  and  C_1390
REMARK  794  A    between atoms: N_1395  and  C_1396
REMARK  795  A    between atoms: C_1396  and  C_1399
REMARK  796  A    between atoms: C_1399  and  C_1400
REMARK  797  A    between atoms: C_1400  and  C_1401
REMARK  798  A    between atoms: N_1405  and  C_1406
REMARK  799  A    between atoms: C_1407  and  C_1412
REMARK  800  A    between atoms: C_1408  and  O_1410
REMARK  801  A    between atoms: C_1409  and  O_1411
REMARK  802  A    between atoms: O_1410  and  O_1411
REMARK  803  A    between atoms: C_1412  and  C_1414
REMARK  804  A    between atoms: C_1413  and  C_1415
REMARK  805  A    between atoms: S_1416  and  C_1418
REMARK  806  A    between atoms: S_1417  and  C_1419
REMARK  807  A    between atoms: C_1418  and  C_1419
REMARK  808  A    between atoms: N_1420  and  CA_1421
REMARK  809  A    between atoms: CA_1421  and  C_1422
REMARK  810  A    between atoms: CA_1421  and  CB_1424
REMARK  811  A    between atoms: CB_1424  and  CG1_1425
REMARK  812  A    between atoms: CB_1424  and  CG2_1426
REMARK  813  A    between atoms: CG1_1425  and  CD1_1427
REMARK  814  A    between atoms: N_1428  and  CA_1429
REMARK  815  A    between atoms: CA_1429  and  C_1430
REMARK  816  A    between atoms: CA_1429  and  CB_1432
REMARK  817  A    between atoms: CB_1432  and  CG_1433
REMARK  818  A    between atoms: CG_1433  and  CD_1434
REMARK  819  A    between atoms: N_1437  and  CA_1438
REMARK  820  A    between atoms: CA_1438  and  C_1439
REMARK  821  A    between atoms: N_1441  and  CA_1442
REMARK  822  A    between atoms: CA_1442  and  C_1443
REMARK  823  A    between atoms: CA_1442  and  CB_1445
REMARK  824  A    between atoms: CB_1445  and  CG_1446
REMARK  825  A    between atoms: CG_1446  and  CD_1447
REMARK  826  A    between atoms: CD_1447  and  NE_1448
REMARK  827  A    between atoms: N_1452  and  C_1453
REMARK  828  A    between atoms: C_1453  and  C_1454
REMARK  829  A    between atoms: C_1453  and  C_1456
REMARK  830  A    between atoms: C_1456  and  C_1457
REMARK  831  A    between atoms: C_1457  and  S_1458
REMARK  832  A    between atoms: N_1459  and  CA_1460
REMARK  833  A    between atoms: CA_1460  and  C_1461
REMARK  834  A    between atoms: CA_1460  and  CB_1463
REMARK  835  A    between atoms: CB_1463  and  CG_1464
REMARK  836  A    between atoms: N_1469  and  CA_1470
REMARK  837  A    between atoms: CA_1470  and  C_1471
REMARK  838  A    between atoms: CA_1470  and  CB_1473
REMARK  839  A    between atoms: CB_1473  and  CG_1474
REMARK  840  A    between atoms: N_1477  and  CA_1478
REMARK  841  A    between atoms: CA_1478  and  C_1479
REMARK  842  A    between atoms: CA_1478  and  CB_1481
REMARK  843  A    between atoms: CB_1481  and  CG_1482
REMARK  844  A    between atoms: CG_1482  and  CD_1483
REMARK  845  A    between atoms: N_1486  and  CA_1487
REMARK  846  A    between atoms: CA_1487  and  C_1488
REMARK  847  A    between atoms: CA_1487  and  CB_1490
REMARK  848  A    between atoms: CB_1490  and  CG_1491
REMARK  849  A    between atoms: CG_1491  and  CD_1492
REMARK  850  A    between atoms: CD_1492  and  CE_1493
REMARK  851  A    between atoms: CE_1493  and  NZ_1494
REMARK  852  A    between atoms: N_1495  and  CA_1496
REMARK  853  A    between atoms: CA_1496  and  C_1497
REMARK  854  A    between atoms: CA_1496  and  CB_1499
REMARK  855  A    between atoms: CB_1499  and  CG2_1500
REMARK  856  A    between atoms: CB_1499  and  CG1_1501
REMARK  857  A    between atoms: N_1502  and  CA_1503
REMARK  858  A    between atoms: CA_1503  and  C_1504
REMARK  859  A    between atoms: CA_1503  and  CB_1506
REMARK  860  A    between atoms: CB_1506  and  CG_1507
REMARK  861  A    between atoms: N_1510  and  CA_1511
REMARK  862  A    between atoms: CA_1511  and  C_1512
REMARK  863  A    between atoms: CA_1511  and  CB_1514
REMARK  864  A    between atoms: CB_1514  and  CG_1515
REMARK  865  A    between atoms: CG_1515  and  CD2_1516
REMARK  866  A    between atoms: CG_1515  and  CD1_1517
REMARK  867  A    between atoms: N_1518  and  CA_1519
REMARK  868  A    between atoms: CA_1519  and  C_1520
REMARK  869  A    between atoms: CA_1519  and  CB_1522
REMARK  870  A    between atoms: CB_1522  and  CG_1523
REMARK  871  A    between atoms: N_1532  and  CA_1533
REMARK  872  A    between atoms: CA_1533  and  C_1534
REMARK  873  A    between atoms: CA_1533  and  CB_1536
REMARK  874  A    between atoms: CB_1536  and  OG_1537
REMARK  875  A    between atoms: N_1538  and  CA_1539
REMARK  876  A    between atoms: CA_1539  and  C_1540
REMARK  877  A    between atoms: CA_1539  and  CB_1542
REMARK  878  A    between atoms: CB_1542  and  CG_1543
REMARK  879  A    between atoms: CG_1543  and  CD2_1544
REMARK  880  A    between atoms: CG_1543  and  CD1_1545
REMARK  881  A    between atoms: N_1546  and  CA_1547
REMARK  882  A    between atoms: CA_1547  and  C_1548
REMARK  883  A    between atoms: N_1550  and  CA_1551
REMARK  884  A    between atoms: CA_1551  and  C_1552
REMARK  885  A    between atoms: CA_1551  and  CB_1554
REMARK  886  A    between atoms: CB_1554  and  CG2_1555
REMARK  887  A    between atoms: CB_1554  and  CG1_1556
REMARK  888  A    between atoms: N_1557  and  CA_1558
REMARK  889  A    between atoms: CA_1558  and  C_1559
REMARK  890  A    between atoms: CA_1558  and  CB_1561
REMARK  891  A    between atoms: CB_1561  and  CG_1562
REMARK  892  A    between atoms: CG_1562  and  CD1_1563
REMARK  893  A    between atoms: CG_1562  and  CD2_1564
REMARK  894  A    between atoms: N_1565  and  CA_1566
REMARK  895  A    between atoms: CA_1566  and  C_1567
REMARK  896  A    between atoms: CA_1566  and  CB_1569
REMARK  897  A    between atoms: CB_1569  and  SG_1570
REMARK  898  A    between atoms: N_1571  and  CA_1572
REMARK  899  A    between atoms: CA_1572  and  C_1573
REMARK  900  A    between atoms: CA_1572  and  CB_1575
REMARK  901  A    between atoms: CB_1575  and  CG_1576
REMARK  902  A    between atoms: CZ_1581  and  OH_1582
REMARK  903  A    between atoms: N_1583  and  CA_1584
REMARK  904  A    between atoms: CA_1584  and  C_1585
REMARK  905  A    between atoms: CA_1584  and  CB_1587
REMARK  906  A    between atoms: CB_1587  and  CG_1588
REMARK  907  A    between atoms: CG_1588  and  CD_1589
REMARK  908  A    between atoms: N_1592  and  CA_1593
REMARK  909  A    between atoms: CA_1593  and  C_1594
REMARK  910  A    between atoms: CA_1593  and  CB_1596
REMARK  911  A    between atoms: CB_1596  and  CG_1597
REMARK  912  A    between atoms: N_1603  and  CA_1604
REMARK  913  A    between atoms: CA_1604  and  C_1605
REMARK  914  A    between atoms: CA_1604  and  CB_1607
REMARK  915  A    between atoms: CB_1607  and  CG_1608
REMARK  916  A    between atoms: CG_1608  and  CD1_1609
REMARK  917  A    between atoms: CG_1608  and  CD2_1610
REMARK  918  A    between atoms: N_1611  and  CA_1612
REMARK  919  A    between atoms: CA_1612  and  C_1613
REMARK  920  A    between atoms: CA_1612  and  CB_1615
REMARK  921  A    between atoms: CB_1615  and  CG2_1616
REMARK  922  A    between atoms: CB_1615  and  CG1_1617
REMARK  923  A    between atoms: N_1618  and  CA_1619
REMARK  924  A    between atoms: CA_1619  and  C_1620
REMARK  925  A    between atoms: N_1622  and  C_1623
REMARK  926  A    between atoms: C_1623  and  C_1624
REMARK  927  A    between atoms: C_1623  and  C_1626
REMARK  928  A    between atoms: C_1626  and  C_1627
REMARK  929  A    between atoms: C_1627  and  C_1628
REMARK  930  A    between atoms: CA_1630  and  C_1631
REMARK  931  A    between atoms: CA_1637  and  C_1638
REMARK  932  A    between atoms: N_1643  and  CA_1644
REMARK  933  A    between atoms: CA_1644  and  C_1645
REMARK  934  A    between atoms: CA_1644  and  CB_1647
REMARK  935  A    between atoms: CB_1647  and  CG_1648
REMARK  936  A    between atoms: N_1654  and  CA_1655
REMARK  937  A    between atoms: CA_1655  and  C_1656
REMARK  938  A    between atoms: CA_1655  and  CB_1658
REMARK  939  A    between atoms: CB_1658  and  CG_1659
REMARK  940  A    between atoms: CG_1659  and  CD_1660
REMARK  941  A    between atoms: N_1663  and  CA_1664
REMARK  942  A    between atoms: CA_1664  and  C_1665
REMARK  943  A    between atoms: CA_1664  and  CB_1667
REMARK  944  A    between atoms: N_1668  and  CA_1669
REMARK  945  A    between atoms: CA_1669  and  C_1670
REMARK  946  A    between atoms: CA_1669  and  CB_1672
REMARK  947  A    between atoms: CB_1672  and  CG_1673
REMARK  948  A    between atoms: N_1676  and  CA_1677
REMARK  949  A    between atoms: CA_1677  and  C_1678
REMARK  950  A    between atoms: CA_1677  and  CB_1680
REMARK  951  A    between atoms: CB_1680  and  OG1_1681
REMARK  952  A    between atoms: CB_1680  and  CG2_1682
REMARK  953  A    between atoms: N_1683  and  CA_1684
REMARK  954  A    between atoms: CA_1684  and  C_1685
REMARK  955  A    between atoms: CA_1684  and  CB_1687
REMARK  956  A    between atoms: CB_1687  and  CG_1688
REMARK  957  A    between atoms: CZ_1693  and  OH_1694
REMARK  958  A    between atoms: N_1695  and  CA_1696
REMARK  959  A    between atoms: CA_1696  and  C_1697
REMARK  960  A    between atoms: CA_1696  and  CB_1699
REMARK  961  A    between atoms: CB_1699  and  CG_1700
REMARK  962  A    between atoms: CG_1700  and  CD_1701
REMARK  963  A    between atoms: N_1704  and  CA_1705
REMARK  964  A    between atoms: CA_1705  and  C_1706
REMARK  965  A    between atoms: CA_1705  and  CB_1708
REMARK  966  A    between atoms: CB_1708  and  CG_1709
REMARK  967  A    between atoms: CG_1709  and  CD_1710
REMARK  968  A    between atoms: N_1713  and  CA_1714
REMARK  969  A    between atoms: CA_1714  and  C_1715
REMARK  970  A    between atoms: CA_1714  and  CB_1717
REMARK  971  A    between atoms: CB_1717  and  OG1_1718
REMARK  972  A    between atoms: CB_1717  and  CG2_1719
REMARK  973  A    between atoms: N_1720  and  CA_1721
REMARK  974  A    between atoms: CA_1721  and  C_1722
REMARK  975  A    between atoms: CA_1721  and  CB_1724
REMARK  976  A    between atoms: CB_1724  and  CG_1725
REMARK  977  A    between atoms: CZ_1730  and  OH_1731
REMARK  978  A    between atoms: N_1732  and  CA_1733
REMARK  979  A    between atoms: CA_1733  and  C_1734
REMARK  980  A    between atoms: CA_1733  and  CB_1736
REMARK  981  A    between atoms: CB_1736  and  SG_1737
REMARK  982  A    between atoms: N_1738  and  C_1739
REMARK  983  A    between atoms: C_1739  and  C_1740
REMARK  984  A    between atoms: C_1739  and  C_1742
REMARK  985  A    between atoms: C_1742  and  C_1743
REMARK  986  A    between atoms: C_1743  and  C_1744
REMARK  987  A    between atoms: C_1744  and  N_1745
REMARK  988  A    between atoms: N_1746  and  CA_1747
REMARK  989  A    between atoms: CA_1747  and  C_1748
REMARK  990  A    between atoms: CA_1747  and  CB_1750
REMARK  991  A    between atoms: CB_1750  and  CG1_1751
REMARK  992  A    between atoms: CB_1750  and  CG2_1752
REMARK  993  A    between atoms: CG1_1751  and  CD1_1753
REMARK  994  A    between atoms: N_1754  and  C_1755
REMARK  995  A    between atoms: C_1755  and  C_1756
REMARK  996  A    between atoms: C_1755  and  C_1758
REMARK  997  A    between atoms: C_1758  and  O_1759
REMARK  998  A    between atoms: N_1760  and  C_1761
REMARK  999  A    between atoms: C_1761  and  C_1762
REMARK  1000  A    between atoms: C_1761  and  C_1764
REMARK  1001  A    between atoms: C_1764  and  C_1765
REMARK  1002  A    between atoms: C_1765  and  C_1766
REMARK  1003  A    between atoms: C_1766  and  N_1767
REMARK  1004  A    between atoms: N_1771  and  C_1772
REMARK  1005  A    between atoms: C_1772  and  C_1773
REMARK  1006  A    between atoms: C_1772  and  C_1775
REMARK  1007  A    between atoms: C_1775  and  C_1776
REMARK  1008  A    between atoms: C_1775  and  C_1777
REMARK  1009  A    between atoms: N_1778  and  C_1779
REMARK  1010  A    between atoms: C_1779  and  C_1780
REMARK  1011  A    between atoms: C_1779  and  C_1782
REMARK  1012  A    between atoms: C_1782  and  C_1783
REMARK  1013  A    between atoms: C_1783  and  C_1784
REMARK  1014  A    between atoms: N_1787  and  C_1788
REMARK  1015  A    between atoms: C_1788  and  C_1789
REMARK  1016  A    between atoms: C_1788  and  C_1791
REMARK  1017  A    between atoms: C_1791  and  C_1792
REMARK  1018  A    between atoms: N_1798  and  C_1799
REMARK  1019  A    between atoms: C_1799  and  C_1800
REMARK  1020  A    between atoms: C_1799  and  C_1802
REMARK  1021  A    between atoms: C_1802  and  O_1803
REMARK  1022  A    between atoms: C_1802  and  C_1804
REMARK  1023  A    between atoms: N_1805  and  C_1806
REMARK  1024  A    between atoms: C_1806  and  C_1807
REMARK  1025  A    between atoms: C_1806  and  C_1809
REMARK  1026  A    between atoms: C_1809  and  C_1810
REMARK  1027  A    between atoms: C_1817  and  C_1818
REMARK  1028  A    between atoms: N_1823  and  C_1824
REMARK  1029  A    between atoms: C_1824  and  C_1825
REMARK  1030  A    between atoms: C_1824  and  C_1827
REMARK  1031  A    between atoms: C_1827  and  C_1828
REMARK  1032  A    between atoms: N_1831  and  C_1832
REMARK  1033  A    between atoms: C_1832  and  C_1833
REMARK  1034  A    between atoms: C_1832  and  C_1835
REMARK  1035  A    between atoms: C_1835  and  C_1836
REMARK  1036  A    between atoms: N_1842  and  C_1843
REMARK  1037  A    between atoms: C_1843  and  C_1844
REMARK  1038  A    between atoms: C_1843  and  C_1846
REMARK  1039  A    between atoms: C_1846  and  C_1847
REMARK  1040  A    between atoms: C_1846  and  C_1848
REMARK  1041  A    between atoms: N_1849  and  C_1850
REMARK  1042  A    between atoms: C_1850  and  C_1851
REMARK  1043  A    between atoms: C_1850  and  C_1853
REMARK  1044  A    between atoms: C_1853  and  O_1854
REMARK  1045  A    between atoms: C_1853  and  C_1855
REMARK  1046  A    between atoms: N_1856  and  C_1857
REMARK  1047  A    between atoms: C_1858  and  C_1859
REMARK  1048  A    between atoms: C_1858  and  C_1861
REMARK  1049  A    between atoms: C_1862  and  C_1863
REMARK  1050  A    between atoms: C_1862  and  C_1864
REMARK  1051  A    between atoms: C_1863  and  C_1865
REMARK  1052  A    between atoms: N_1871  and  C_1872
REMARK  1053  A    between atoms: C_1872  and  C_1873
REMARK  1054  A    between atoms: N_1875  and  CA_1876
REMARK  1055  A    between atoms: CA_1876  and  C_1877
REMARK  1056  A    between atoms: CA_1876  and  CB_1879
REMARK  1057  A    between atoms: N_1880  and  CA_1881
REMARK  1058  A    between atoms: CA_1881  and  C_1882
REMARK  1059  A    between atoms: CA_1881  and  CB_1884
REMARK  1060  A    between atoms: CB_1884  and  CG_1885
REMARK  1061  A    between atoms: CG_1885  and  CD_1886
REMARK  1062  A    between atoms: CD_1886  and  NE_1887
REMARK  1063  A    between atoms: N_1891  and  CA_1892
REMARK  1064  A    between atoms: CA_1892  and  C_1893
REMARK  1065  A    between atoms: CA_1892  and  CB_1895
REMARK  1066  A    between atoms: CB_1895  and  CG_1896
REMARK  1067  A    between atoms: N_1899  and  CA_1900
REMARK  1068  A    between atoms: CA_1900  and  C_1901
REMARK  1069  A    between atoms: CA_1900  and  CB_1903
REMARK  1070  A    between atoms: CB_1903  and  CG_1904
REMARK  1071  A    between atoms: CG_1904  and  CD1_1905
REMARK  1072  A    between atoms: CG_1904  and  CD2_1906
REMARK  1073  A    between atoms: N_1907  and  CA_1908
REMARK  1074  A    between atoms: CA_1908  and  C_1909
REMARK  1075  A    between atoms: CA_1908  and  CB_1911
REMARK  1076  A    between atoms: CB_1911  and  CG1_1912
REMARK  1077  A    between atoms: CB_1911  and  CG2_1913
REMARK  1078  A    between atoms: CG1_1912  and  CD1_1914
REMARK  1079  A    between atoms: N_1915  and  CA_1916
REMARK  1080  A    between atoms: CA_1916  and  C_1917
REMARK  1081  A    between atoms: CA_1916  and  CB_1919
REMARK  1082  A    between atoms: CB_1919  and  OG_1920
REMARK  1083  A    between atoms: N_1921  and  CA_1922
REMARK  1084  A    between atoms: CA_1922  and  C_1923
REMARK  1085  A    between atoms: CA_1922  and  CB_1925
REMARK  1086  A    between atoms: CB_1925  and  CG_1926
REMARK  1087  A    between atoms: CG_1926  and  CD_1927
REMARK  1088  A    between atoms: CD_1927  and  NE_1928
REMARK  1089  A    between atoms: N_1932  and  CA_1933
REMARK  1090  A    between atoms: CA_1933  and  C_1934
REMARK  1091  A    between atoms: CA_1933  and  CB_1936
REMARK  1092  A    between atoms: CB_1936  and  CG_1937
REMARK  1093  A    between atoms: CG_1937  and  CD2_1938
REMARK  1094  A    between atoms: CG_1937  and  CD1_1939
REMARK  1095  A    between atoms: N_1940  and  CA_1941
REMARK  1096  A    between atoms: CA_1941  and  C_1942
REMARK  1097  A    between atoms: CA_1941  and  CB_1944
REMARK  1098  A    between atoms: CB_1944  and  CG_1945
REMARK  1099  A    between atoms: CG_1945  and  CD2_1946
REMARK  1100  A    between atoms: CG_1945  and  CD1_1947
REMARK  1101  A    between atoms: N_1948  and  CA_1949
REMARK  1102  A    between atoms: CA_1949  and  C_1950
REMARK  1103  A    between atoms: CA_1949  and  CB_1952
REMARK  1104  A    between atoms: CB_1952  and  CG_1953
REMARK  1105  A    between atoms: CG_1953  and  CD_1954
REMARK  1106  A    between atoms: CD_1954  and  CE_1955
REMARK  1107  A    between atoms: CE_1955  and  NZ_1956
REMARK  1108  A    between atoms: N_1957  and  CA_1958
REMARK  1109  A    between atoms: CA_1958  and  C_1959
REMARK  1110  A    between atoms: CA_1958  and  CB_1961
REMARK  1111  A    between atoms: CB_1961  and  CG_1962
REMARK  1112  A    between atoms: N_1967  and  CA_1968
REMARK  1113  A    between atoms: CA_1968  and  C_1969
REMARK  1114  A    between atoms: CA_1968  and  CB_1971
REMARK  1115  A    between atoms: CB_1971  and  CG_1972
REMARK  1116  A    between atoms: CA_1976  and  C_1977
REMARK  1117  A    between atoms: N_1982  and  C_1983
REMARK  1118  A    between atoms: C_1983  and  C_1984
REMARK  1119  A    between atoms: C_1983  and  C_1986
REMARK  1120  A    between atoms: C_1986  and  O_1987
REMARK  1121  A    between atoms: N_1988  and  C_1989
REMARK  1122  A    between atoms: C_1989  and  C_1990
REMARK  1123  A    between atoms: C_1989  and  C_1992
REMARK  1124  A    between atoms: C_1992  and  C_1993
REMARK  1125  A    between atoms: C_1993  and  C_1994
REMARK  1126  A    between atoms: N_1997  and  C_1998
REMARK  1127  A    between atoms: C_1998  and  C_1999
REMARK  1128  A    between atoms: C_1998  and  C_2001
REMARK  1129  A    between atoms: C_2001  and  C_2002
REMARK  1130  A    between atoms: C_2002  and  C_2003
REMARK  1131  A    between atoms: C_2003  and  N_2004
REMARK  1132  A    between atoms: C_2009  and  C_2010
REMARK  1133  A    between atoms: N_2015  and  C_2017
REMARK  1134  A    between atoms: C_2016  and  C_2018
REMARK  1135  A    between atoms: C_2016  and  C_2021
REMARK  1136  A    between atoms: C_2021  and  C_2022
REMARK  1137  A    between atoms: C_2022  and  C_2023
REMARK  1138  A    between atoms: C_2023  and  S_2024
REMARK  1139  A    between atoms: C_2023  and  S_2025
REMARK  1140  A    between atoms: S_2024  and  C_2026
REMARK  1141  A    between atoms: S_2025  and  C_2027
REMARK  1142  A    between atoms: N_2028  and  CA_2029
REMARK  1143  A    between atoms: CA_2029  and  C_2030
REMARK  1144  A    between atoms: CA_2029  and  CB_2032
REMARK  1145  A    between atoms: CB_2032  and  CG_2033
REMARK  1146  A    between atoms: CG_2033  and  CD1_2034
REMARK  1147  A    between atoms: CG_2033  and  CD2_2035
REMARK  1148  A    between atoms: N_2036  and  CA_2037
REMARK  1149  A    between atoms: CA_2037  and  C_2038
REMARK  1150  A    between atoms: CA_2037  and  CB_2040
REMARK  1151  A    between atoms: N_2041  and  CA_2042
REMARK  1152  A    between atoms: CA_2042  and  C_2043
REMARK  1153  A    between atoms: CA_2042  and  CB_2045
REMARK  1154  A    between atoms: CB_2045  and  CG_2046
REMARK  1155  A    between atoms: CG_2046  and  CD_2047
REMARK  1156  A    between atoms: N_2050  and  CA_2051
REMARK  1157  A    between atoms: CA_2051  and  C_2052
REMARK  1158  A    between atoms: CA_2051  and  CB_2054
REMARK  1159  A    between atoms: CB_2054  and  CG2_2055
REMARK  1160  A    between atoms: CB_2054  and  CG1_2056
REMARK  1161  A    between atoms: N_2057  and  CA_2058
REMARK  1162  A    between atoms: CA_2058  and  C_2059
REMARK  1163  A    between atoms: CA_2058  and  CB_2061
REMARK  1164  A    between atoms: CB_2061  and  CG_2062
REMARK  1165  A    between atoms: CG_2062  and  CD1_2063
REMARK  1166  A    between atoms: CG_2062  and  CD2_2064
REMARK  1167  A    between atoms: N_2065  and  CA_2066
REMARK  1168  A    between atoms: CA_2066  and  C_2067
REMARK  1169  A    between atoms: CA_2066  and  CB_2069
REMARK  1170  A    between atoms: CB_2069  and  CG_2070
REMARK  1171  A    between atoms: CG_2070  and  CD_2071
REMARK  1172  A    between atoms: N_2074  and  CA_2075
REMARK  1173  A    between atoms: CA_2075  and  C_2076
REMARK  1174  A    between atoms: CA_2075  and  CB_2078
REMARK  1175  A    between atoms: CB_2078  and  CG_2079
REMARK  1176  A    between atoms: CA_2085  and  C_2086
REMARK  1177  A    between atoms: N_2091  and  CA_2092
REMARK  1178  A    between atoms: CA_2092  and  C_2093
REMARK  1179  A    between atoms: CA_2092  and  CB_2095
REMARK  1180  A    between atoms: CB_2095  and  CG_2096
REMARK  1181  A    between atoms: N_2105  and  CA_2106
REMARK  1182  A    between atoms: CA_2106  and  C_2107
REMARK  1183  A    between atoms: CA_2106  and  CB_2109
REMARK  1184  A    between atoms: CB_2109  and  CG1_2110
REMARK  1185  A    between atoms: CB_2109  and  CG2_2111
REMARK  1186  A    between atoms: CG1_2110  and  CD1_2112
REMARK  1187  A    between atoms: N_2113  and  CA_2114
REMARK  1188  A    between atoms: CA_2114  and  C_2115
REMARK  1189  A    between atoms: CA_2114  and  CB_2117
REMARK  1190  A    between atoms: CB_2117  and  OG1_2118
REMARK  1191  A    between atoms: CB_2117  and  CG2_2119
REMARK  1192  A    between atoms: N_2120  and  CA_2121
REMARK  1193  A    between atoms: CA_2121  and  C_2122
REMARK  1194  A    between atoms: CA_2121  and  CB_2124
REMARK  1195  A    between atoms: N_2125  and  CA_2126
REMARK  1196  A    between atoms: CA_2126  and  C_2127
REMARK  1197  A    between atoms: CA_2126  and  CB_2129
REMARK  1198  A    between atoms: CB_2129  and  CG_2130
REMARK  1199  A    between atoms: N_2133  and  CA_2134
REMARK  1200  A    between atoms: CA_2134  and  C_2135
REMARK  1201  A    between atoms: CA_2134  and  CB_2137
REMARK  1202  A    between atoms: CB_2137  and  OG_2138
REMARK  1203  A    between atoms: N_2139  and  CA_2140
REMARK  1204  A    between atoms: CA_2140  and  C_2141
REMARK  1205  A    between atoms: CA_2140  and  CB_2143
REMARK  1206  A    between atoms: CB_2143  and  OG_2144
REMARK  1207  A    between atoms: N_2145  and  C_2146
REMARK  1208  A    between atoms: C_2146  and  C_2147
REMARK  1209  A    between atoms: C_2146  and  C_2149
REMARK  1210  A    between atoms: C_2149  and  C_2150
REMARK  1211  A    between atoms: N_2151  and  CA_2152
REMARK  1212  A    between atoms: CA_2152  and  C_2153
REMARK  1213  A    between atoms: CA_2152  and  CB_2155
REMARK  1214  A    between atoms: CB_2155  and  OG_2156
REMARK  1215  A    between atoms: N_2157  and  CA_2158
REMARK  1216  A    between atoms: CA_2158  and  C_2159
REMARK  1217  A    between atoms: CA_2158  and  CB_2161
REMARK  1218  A    between atoms: CB_2161  and  CG_2162
REMARK  1219  A    between atoms: CG_2162  and  CD_2163
REMARK  1220  A    between atoms: CA_2167  and  C_2168
REMARK  1221  A    between atoms: CA_2174  and  C_2175
REMARK  1222  A    between atoms: N_2180  and  CA_2181
REMARK  1223  A    between atoms: CA_2181  and  C_2182
REMARK  1224  A    between atoms: CA_2181  and  CB_2184
REMARK  1225  A    between atoms: CB_2184  and  OG_2185
REMARK  1226  A    between atoms: N_2186  and  CA_2187
REMARK  1227  A    between atoms: CA_2187  and  C_2188
REMARK  1228  A    between atoms: CA_2187  and  CB_2190
REMARK  1229  A    between atoms: CB_2190  and  CG_2191
REMARK  1230  A    between atoms: N_2200  and  CA_2201
REMARK  1231  A    between atoms: CA_2201  and  C_2202
REMARK  1232  A    between atoms: CA_2201  and  CB_2204
REMARK  1233  A    between atoms: CB_2204  and  CG2_2205
REMARK  1234  A    between atoms: CB_2204  and  CG1_2206
REMARK  1235  A    between atoms: N_2207  and  CA_2208
REMARK  1236  A    between atoms: CA_2208  and  C_2209
REMARK  1237  A    between atoms: CA_2208  and  CB_2211
REMARK  1238  A    between atoms: CB_2211  and  OG1_2212
REMARK  1239  A    between atoms: CB_2211  and  CG2_2213
REMARK  1240  A    between atoms: N_2214  and  CA_2215
REMARK  1241  A    between atoms: CA_2215  and  C_2216
REMARK  1242  A    between atoms: CA_2215  and  CB_2218
REMARK  1243  A    between atoms: CB_2218  and  CG_2219
REMARK  1244  A    between atoms: CG_2219  and  CD_2220
REMARK  1245  A    between atoms: N_2223  and  CA_2224
REMARK  1246  A    between atoms: CA_2224  and  C_2225
REMARK  1247  A    between atoms: CA_2224  and  CB_2227
REMARK  1248  A    between atoms: CB_2227  and  CG_2228
REMARK  1249  A    between atoms: CG_2228  and  SD_2229
REMARK  1250  A    between atoms: SD_2229  and  CE_2230
REMARK  1251  A    between atoms: N_2231  and  CA_2232
REMARK  1252  A    between atoms: CA_2232  and  C_2233
REMARK  1253  A    between atoms: CA_2232  and  CB_2235
REMARK  1254  A    between atoms: CB_2235  and  CG_2236
REMARK  1255  A    between atoms: CG_2236  and  CD1_2237
REMARK  1256  A    between atoms: CG_2236  and  CD2_2238
REMARK  1257  A    between atoms: N_2239  and  CA_2240
REMARK  1258  A    between atoms: CA_2240  and  C_2241
REMARK  1259  A    between atoms: CA_2240  and  CB_2243
REMARK  1260  A    between atoms: CB_2243  and  CG_2244
REMARK  1261  A    between atoms: CG_2244  and  CD1_2245
REMARK  1262  A    between atoms: CG_2244  and  CD2_2246
REMARK  1263  A    between atoms: N_2247  and  CA_2248
REMARK  1264  A    between atoms: CA_2248  and  C_2249
REMARK  1265  A    between atoms: CA_2248  and  CB_2251
REMARK  1266  A    between atoms: CB_2251  and  CG_2252
REMARK  1267  A    between atoms: CG_2252  and  CD_2253
REMARK  1268  A    between atoms: N_2256  and  CA_2257
REMARK  1269  A    between atoms: CA_2257  and  C_2258
REMARK  1270  A    between atoms: CA_2257  and  CB_2260
REMARK  1271  A    between atoms: CB_2260  and  CG_2261
REMARK  1272  A    between atoms: CG_2261  and  CD_2262
REMARK  1273  A    between atoms: CD_2262  and  CE_2263
REMARK  1274  A    between atoms: CE_2263  and  NZ_2264
REMARK  1275  A    between atoms: N_2265  and  C_2266
REMARK  1276  A    between atoms: C_2266  and  C_2267
REMARK  1277  A    between atoms: C_2266  and  C_2269
REMARK  1278  A    between atoms: C_2269  and  C_2270
REMARK  1279  A    between atoms: N_2271  and  CA_2272
REMARK  1280  A    between atoms: CA_2272  and  C_2273
REMARK  1281  A    between atoms: CA_2272  and  CB_2275
REMARK  1282  A    between atoms: CB_2275  and  CG_2276
REMARK  1283  A    between atoms: CG_2276  and  CD2_2277
REMARK  1284  A    between atoms: CG_2276  and  CD1_2278
REMARK  1285  A    between atoms: N_2279  and  CA_2280
REMARK  1286  A    between atoms: CA_2280  and  C_2281
REMARK  1287  A    between atoms: CA_2280  and  CB_2283
REMARK  1288  A    between atoms: CB_2283  and  CG_2284
REMARK  1289  A    between atoms: N_2293  and  CA_2294
REMARK  1290  A    between atoms: CA_2294  and  C_2295
REMARK                            x       y       z     vdW  Elec       q    Type
REMARK                         _______ _______ _______ _____ _____    ______ ____
ROOT
ATOM      1  C   GLU P   9     -49.483  20.508  17.198  0.00  0.00    +0.234 C 
ATOM      2  O   GLU P   9     -49.933  20.028  18.249  0.00  0.00    -0.274 OA
ATOM      3  N   MET P  10     -50.260  21.157  16.331  0.00  0.00    -0.302 N 
ATOM      4  H   MET P  10     -49.885  21.526  15.499  0.00  0.00    +0.150 HD
ENDROOT
BRANCH   1   5
ATOM      5  CA  GLU P   9     -47.998  20.393  16.864  0.00  0.00    +0.159 C 
BRANCH   5   8
ATOM      6  C   THR P   8     -48.187  18.957  14.907  0.00  0.00    +0.236 C 
ATOM      7  O   THR P   8     -48.761  18.084  15.569  0.00  0.00    -0.274 OA
ATOM      8  N   GLU P   9     -47.790  20.117  15.445  0.00  0.00    -0.302 N 
ATOM      9  H   GLU P   9     -47.353  20.792  14.877  0.00  0.00    +0.150 HD
BRANCH   6  10
ATOM     10  CA  THR P   8     -47.918  18.748  13.420  0.00  0.00    +0.187 C 
BRANCH  10  13
ATOM     11  C   VAL P   7     -49.492  20.426  12.629  0.00  0.00    +0.234 C 
ATOM     12  O   VAL P   7     -50.425  19.895  13.245  0.00  0.00    -0.274 OA
ATOM     13  N   THR P   8     -48.255  19.937  12.648  0.00  0.00    -0.300 N 
ATOM     14  H   THR P   8     -47.551  20.389  12.129  0.00  0.00    +0.150 HD
BRANCH  11  15
ATOM     15  CA  VAL P   7     -49.705  21.687  11.809  0.00  0.00    +0.161 C 
BRANCH  15  18
ATOM     16  C   TRP P   6     -48.557  23.203  13.309  0.00  0.00    +0.234 C 
ATOM     17  O   TRP P   6     -49.394  22.979  14.195  0.00  0.00    -0.274 OA
ATOM     18  N   VAL P   7     -48.651  22.660  12.094  0.00  0.00    -0.302 N 
ATOM     19  H   VAL P   7     -48.011  22.914  11.390  0.00  0.00    +0.150 HD
BRANCH  16  20
ATOM     20  CA  TRP P   6     -47.387  24.141  13.590  0.00  0.00    +0.163 C 
BRANCH  20  23
ATOM     21  C   SER P   5     -45.577  22.652  12.952  0.00  0.00    +0.236 C 
ATOM     22  O   SER P   5     -46.013  21.773  13.705  0.00  0.00    -0.274 OA
ATOM     23  N   TRP P   6     -46.205  23.823  12.793  0.00  0.00    -0.302 N 
ATOM     24  H   TRP P   6     -45.868  24.474  12.135  0.00  0.00    +0.150 HD
BRANCH  21  25
ATOM     25  CA  SER P   5     -44.292  22.426  12.158  0.00  0.00    +0.184 C 
BRANCH  25  28
ATOM     26  C   PRO P   4     -45.475  22.513  10.023  0.00  0.00    +0.234 C 
ATOM     27  O   PRO P   4     -46.405  21.809  10.433  0.00  0.00    -0.274 OA
ATOM     28  N   SER P   5     -44.416  22.845  10.765  0.00  0.00    -0.301 N 
ATOM     29  H   SER P   5     -43.700  23.387  10.362  0.00  0.00    +0.150 HD
BRANCH  26  33
ATOM     30  C   PRO P   3     -45.744  20.805   7.698  0.00  0.00    +0.237 C 
ATOM     31  O   PRO P   3     -44.730  20.428   8.307  0.00  0.00    -0.274 OA
ATOM     32  N   PRO P   4     -46.114  22.085   7.692  0.00  0.00    -0.288 N 
ATOM     33  CA  PRO P   4     -45.444  23.032   8.591  0.00  0.00    +0.162 C 
ATOM     34  CB  PRO P   4     -46.259  24.322   8.438  0.00  0.00    +0.033 C 
ATOM     35  CG  PRO P   4     -46.951  24.200   7.122  0.00  0.00    +0.021 C 
ATOM     36  CD  PRO P   4     -47.064  22.741   6.774  0.00  0.00    +0.109 C 
BRANCH  30  40
ATOM     37  C   GLU P   2     -44.866  18.458   5.921  0.00  0.00    +0.237 C 
ATOM     38  O   GLU P   2     -44.581  19.398   5.173  0.00  0.00    -0.274 OA
ATOM     39  N   PRO P   3     -45.869  18.544   6.784  0.00  0.00    -0.288 N 
ATOM     40  CA  PRO P   3     -46.596  19.803   6.943  0.00  0.00    +0.162 C 
ATOM     41  CB  PRO P   3     -47.836  19.406   7.761  0.00  0.00    +0.033 C 
ATOM     42  CG  PRO P   3     -47.596  17.995   8.232  0.00  0.00    +0.021 C 
ATOM     43  CD  PRO P   3     -46.243  17.542   7.792  0.00  0.00    +0.109 C 
BRANCH  37  44
ATOM     44  CA  GLU P   2     -44.052  17.172   5.860  0.00  0.00    +0.160 C 
BRANCH  44  47
ATOM     45  C   SER P   1     -45.026  15.971   3.998  0.00  0.00    +0.264 C 
ATOM     46  O   SER P   1     -45.951  15.559   4.698  0.00  0.00    -0.270 OA
ATOM     47  N   GLU P   2     -44.021  16.686   4.484  0.00  0.00    -0.299 N 
ATOM     48  H   GLU P   2     -43.247  16.891   3.912  0.00  0.00    +0.150 HD
BRANCH  45  49
ATOM     49  CA  SER P   1     -44.984  15.677   2.501  0.00  0.00    +0.174 C 
BRANCH  49  50
ATOM     50  N   SER P   1     -44.494  16.852   1.793  0.00  0.00    +0.229 N 
ATOM     51  H   SER P   1     -44.465  16.658   0.792  0.00  0.00    +0.200 HD
ATOM     52  H   SER P   1     -43.556  17.081   2.122  0.00  0.00    +0.200 HD
ATOM     53  H   SER P   1     -45.118  17.640   1.969  0.00  0.00    +0.200 HD
ENDBRANCH  49  50
BRANCH  49  54
ATOM     54  CB  SER P   1     -44.101  14.464   2.202  0.00  0.00    +0.219 C 
BRANCH  54  55
ATOM     55  OG  SER P   1     -44.853  13.265   2.219  0.00  0.00    -0.389 OA
ATOM     56  H   SER P   1     -45.543  13.306   1.538  0.00  0.00    +0.210 HD
ENDBRANCH  54  55
ENDBRANCH  49  54
ENDBRANCH  45  49
ENDBRANCH  44  47
BRANCH  44  57
ATOM     57  CB  GLU P   2     -42.646  17.454   6.385  0.00  0.00    +0.037 C 
BRANCH  57  58
ATOM     58  CG  GLU P   2     -42.457  17.235   7.882  0.00  0.00    +0.054 C 
BRANCH  58  59
ATOM     59  CD  GLU P   2     -40.992  17.013   8.256  0.00  0.00    +0.042 C 
ATOM     60  OE1 GLU P   2     -40.518  15.853   8.195  0.00  0.00    -0.550 OA
ATOM     61  OE2 GLU P   2     -40.318  18.004   8.629  0.00  0.00    -0.550 OA
ENDBRANCH  58  59
ENDBRANCH  57  58
ENDBRANCH  44  57
ENDBRANCH  37  44
ENDBRANCH  30  40
ENDBRANCH  26  33
ENDBRANCH  25  28
BRANCH  25  62
ATOM     62  CB  SER P   5     -43.129  23.179  12.802  0.00  0.00    +0.187 C 
BRANCH  62  63
ATOM     63  OG  SER P   5     -42.836  22.666  14.085  0.00  0.00    -0.393 OA
ATOM     64  H   SER P   5     -43.612  22.767  14.659  0.00  0.00    +0.209 HD
ENDBRANCH  62  63
ENDBRANCH  25  62
ENDBRANCH  21  25
ENDBRANCH  20  23
BRANCH  20  65
ATOM     65  CB  TRP P   6     -47.803  25.593  13.360  0.00  0.00    +0.069 C 
BRANCH  65  66
ATOM     66  CG  TRP P   6     -48.186  25.957  11.948  0.00  0.00    -0.018 C 
ATOM     67  CD1 TRP P   6     -47.364  26.463  10.969  0.00  0.00    +0.115 C 
ATOM     68  CD2 TRP P   6     -49.491  25.893  11.378  0.00  0.00    +0.001 C 
ATOM     69  NE1 TRP P   6     -48.085  26.710   9.829  0.00  0.00    -0.259 NA
ATOM     70  CE2 TRP P   6     -49.395  26.371  10.055  0.00  0.00    +0.052 C 
ATOM     71  CE3 TRP P   6     -50.737  25.483  11.858  0.00  0.00    +0.010 C 
ATOM     72  CZ2 TRP P   6     -50.500  26.434   9.204  0.00  0.00    +0.083 C 
ATOM     73  CZ3 TRP P   6     -51.831  25.555  11.012  0.00  0.00    -0.003 C 
ATOM     74  CH2 TRP P   6     -51.706  26.021   9.705  0.00  0.00    -0.021 C 
ENDBRANCH  65  66
ENDBRANCH  20  65
ENDBRANCH  16  20
ENDBRANCH  15  18
BRANCH  15  75
ATOM     75  CB  VAL P   7     -49.764  21.376  10.304  0.00  0.00    +0.012 C 
ATOM     76  CG2 VAL P   7     -50.821  20.309  10.029  0.00  0.00    +0.009 C 
ATOM     77  CG1 VAL P   7     -50.101  22.632   9.531  0.00  0.00    +0.009 C 
ENDBRANCH  15  75
ENDBRANCH  11  15
ENDBRANCH  10  13
BRANCH  10  78
ATOM     78  CB  THR P   8     -46.451  18.394  13.182  0.00  0.00    +0.141 C 
ATOM     79  CG2 THR P   8     -46.009  17.298  14.123  0.00  0.00    +0.040 C 
BRANCH  78  80
ATOM     80  OG1 THR P   8     -46.281  17.957  11.822  0.00  0.00    -0.390 OA
ATOM     81  H   THR P   8     -46.826  17.170  11.665  0.00  0.00    +0.210 HD
ENDBRANCH  78  80
ENDBRANCH  10  78
ENDBRANCH   6  10
ENDBRANCH   5   8
BRANCH   5  82
ATOM     82  CB  GLU P   9     -47.266  21.678  17.255  0.00  0.00    +0.037 C 
BRANCH  82  83
ATOM     83  CG  GLU P   9     -45.756  21.668  17.011  0.00  0.00    +0.054 C 
BRANCH  83  84
ATOM     84  CD  GLU P   9     -44.973  20.891  18.067  0.00  0.00    +0.042 C 
ATOM     85  OE2 GLU P   9     -45.589  20.422  19.047  0.00  0.00    -0.550 OA
ATOM     86  OE1 GLU P   9     -43.735  20.749  17.918  0.00  0.00    -0.550 OA
ENDBRANCH  83  84
ENDBRANCH  82  83
ENDBRANCH   5  82
ENDBRANCH   1   5
BRANCH   3  87
ATOM     87  CA  MET P  10     -51.675  21.310  16.639  0.00  0.00    +0.160 C 
BRANCH  87  88
ATOM     88  C   MET P  10     -52.388  19.959  16.583  0.00  0.00    +0.234 C 
ATOM     89  O   MET P  10     -53.288  19.697  17.387  0.00  0.00    -0.274 OA
ATOM     90  N   LEU P  11     -51.953  19.070  15.683  0.00  0.00    -0.302 N 
ATOM     91  H   LEU P  11     -51.255  19.330  15.040  0.00  0.00    +0.150 HD
BRANCH  90  92
ATOM     92  CA  LEU P  11     -52.504  17.719  15.646  0.00  0.00    +0.159 C 
BRANCH  92  93
ATOM     93  C   LEU P  11     -52.153  16.935  16.903  0.00  0.00    +0.234 C 
ATOM     94  O   LEU P  11     -52.978  16.162  17.400  0.00  0.00    -0.274 OA
ATOM     95  N   LEU P  12     -50.923  17.087  17.410  0.00  0.00    -0.302 N 
ATOM     96  H   LEU P  12     -50.252  17.613  16.918  0.00  0.00    +0.150 HD
BRANCH  95  97
ATOM     97  CA  LEU P  12     -50.572  16.475  18.693  0.00  0.00    +0.159 C 
BRANCH  97  98
ATOM     98  C   LEU P  12     -51.504  16.953  19.795  0.00  0.00    +0.234 C 
ATOM     99  O   LEU P  12     -51.999  16.151  20.595  0.00  0.00    -0.274 OA
ATOM    100  N   GLU P  13     -51.730  18.267  19.874  0.00  0.00    -0.302 N 
ATOM    101  H   GLU P  13     -51.307  18.880  19.230  0.00  0.00    +0.150 HD
BRANCH 100 102
ATOM    102  CA  GLU P  13     -52.604  18.793  20.916  0.00  0.00    +0.159 C 
BRANCH 102 103
ATOM    103  C   GLU P  13     -53.987  18.153  20.832  0.00  0.00    +0.234 C 
ATOM    104  O   GLU P  13     -54.550  17.733  21.852  0.00  0.00    -0.274 OA
ATOM    105  N   LYS P  14     -54.537  18.054  19.617  0.00  0.00    -0.302 N 
ATOM    106  H   LYS P  14     -54.066  18.430  18.839  0.00  0.00    +0.150 HD
BRANCH 105 107
ATOM    107  CA  LYS P  14     -55.827  17.396  19.428  0.00  0.00    +0.159 C 
BRANCH 107 108
ATOM    108  C   LYS P  14     -55.783  15.937  19.867  0.00  0.00    +0.234 C 
ATOM    109  O   LYS P  14     -56.721  15.448  20.509  0.00  0.00    -0.274 OA
ATOM    110  N   UNK P  15     -54.710  15.214  19.530  0.00  0.00    -0.302 N 
ATOM    111  H   UNK P  15     -53.966  15.623  19.031  0.00  0.00    +0.150 HD
BRANCH 110 112
ATOM    112  C   UNK P  15     -54.663  13.803  19.917  0.00  0.00    +0.159 C 
BRANCH 112 113
ATOM    113  C   UNK P  15     -54.458  13.650  21.417  0.00  0.00    +0.234 C 
ATOM    114  O   UNK P  15     -54.900  12.658  22.009  0.00  0.00    -0.274 OA
ATOM    115  N   LEU P  16     -53.818  14.636  22.044  0.00  0.00    -0.302 N 
ATOM    116  H   LEU P  16     -53.616  15.463  21.550  0.00  0.00    +0.150 HD
BRANCH 115 117
ATOM    117  CA  LEU P  16     -53.408  14.529  23.436  0.00  0.00    +0.159 C 
BRANCH 117 118
ATOM    118  C   LEU P  16     -54.556  14.842  24.392  0.00  0.00    +0.234 C 
ATOM    119  O   LEU P  16     -54.755  14.126  25.377  0.00  0.00    -0.274 OA
ATOM    120  N   TRP P  17     -55.313  15.926  24.138  0.00  0.00    -0.302 N 
ATOM    121  H   TRP P  17     -55.144  16.462  23.330  0.00  0.00    +0.150 HD
BRANCH 120 122
ATOM    122  CA  TRP P  17     -56.384  16.311  25.054  0.00  0.00    +0.163 C 
BRANCH 122 123
ATOM    123  C   TRP P  17     -57.679  16.700  24.352  0.00  0.00    +0.234 C 
ATOM    124  O   TRP P  17     -58.622  17.121  25.034  0.00  0.00    -0.274 OA
ATOM    125  N   GLY P  18     -57.770  16.552  23.034  0.00  0.00    -0.309 N 
ATOM    126  H   GLY P  18     -56.993  16.209  22.536  0.00  0.00    +0.149 HD
BRANCH 125 127
ATOM    127  CA  GLY P  18     -58.983  16.882  22.310  0.00  0.00    +0.156 C 
BRANCH 127 128
ATOM    128  C   GLY P  18     -59.129  18.358  21.968  0.00  0.00    +0.059 C 
ATOM    129  O   GLY P  18     -60.219  18.800  21.606  0.00  0.00    -0.548 OA
ATOM    130  OXT GLY P  18     -58.179  19.150  22.041  0.00  0.00    -0.548 OA
ENDBRANCH 127 128
ENDBRANCH 125 127
ENDBRANCH 122 123
BRANCH 122 131
ATOM    131  CB  TRP P  17     -55.953  17.468  25.985  0.00  0.00    +0.069 C 
BRANCH 131 132
ATOM    132  CG  TRP P  17     -55.486  18.723  25.253  0.00  0.00    -0.018 C 
ATOM    133  CD1 TRP P  17     -56.236  19.540  24.452  0.00  0.00    +0.115 C 
ATOM    134  CD2 TRP P  17     -54.172  19.296  25.289  0.00  0.00    +0.001 C 
ATOM    135  NE1 TRP P  17     -55.465  20.575  23.970  0.00  0.00    -0.259 NA
ATOM    136  CE2 TRP P  17     -54.195  20.452  24.468  0.00  0.00    +0.052 C 
ATOM    137  CE3 TRP P  17     -52.971  18.935  25.914  0.00  0.00    +0.010 C 
ATOM    138  CZ2 TRP P  17     -53.059  21.254  24.258  0.00  0.00    +0.083 C 
ATOM    139  CZ3 TRP P  17     -51.845  19.743  25.721  0.00  0.00    -0.003 C 
ATOM    140  CH2 TRP P  17     -51.899  20.883  24.887  0.00  0.00    -0.021 C 
ENDBRANCH 131 132
ENDBRANCH 122 131
ENDBRANCH 120 122
ENDBRANCH 117 118
BRANCH 117 141
ATOM    141  CB  LEU P  16     -52.227  15.473  23.674  0.00  0.00    +0.034 C 
BRANCH 141 142
ATOM    142  CG  LEU P  16     -51.481  15.455  24.980  0.00  0.00    -0.015 C 
ATOM    143  CD2 LEU P  16     -51.196  14.022  25.408  0.00  0.00    +0.007 C 
ATOM    144  CD1 LEU P  16     -50.199  16.283  24.829  0.00  0.00    +0.007 C 
ENDBRANCH 141 142
ENDBRANCH 117 141
ENDBRANCH 115 117
ENDBRANCH 112 113
BRANCH 112 145
ATOM    145  C   UNK P  15     -53.555  13.069  19.156  0.00  0.00    +0.028 C 
ATOM    146  C   UNK P  15     -53.909  12.693  17.731  0.00  0.00    +0.006 C 
ENDBRANCH 112 145
ENDBRANCH 110 112
ENDBRANCH 107 108
BRANCH 107 147
ATOM    147  CB  LYS P  14     -56.253  17.493  17.964  0.00  0.00    +0.032 C 
BRANCH 147 148
ATOM    148  CG  LYS P  14     -56.869  18.836  17.596  0.00  0.00    +0.007 C 
BRANCH 148 149
ATOM    149  CD  LYS P  14     -57.325  18.876  16.141  0.00  0.00    +0.051 C 
BRANCH 149 150
ATOM    150  CE  LYS P  14     -56.958  20.193  15.462  0.00  0.00    +0.127 C 
BRANCH 150 151
ATOM    151  NZ  LYS P  14     -57.303  21.396  16.296  0.00  0.00    +0.219 N 
ATOM    152  H   LYS P  14     -58.310  21.423  16.453  0.00  0.00    +0.199 HD
ATOM    153  H   LYS P  14     -57.012  22.243  15.808  0.00  0.00    +0.199 HD
ATOM    154  H   LYS P  14     -56.820  21.338  17.193  0.00  0.00    +0.199 HD
ENDBRANCH 150 151
ENDBRANCH 149 150
ENDBRANCH 148 149
ENDBRANCH 147 148
ENDBRANCH 107 147
ENDBRANCH 105 107
ENDBRANCH 102 103
BRANCH 102 155
ATOM    155  CB  GLU P  13     -52.707  20.319  20.806  0.00  0.00    +0.037 C 
BRANCH 155 156
ATOM    156  CG  GLU P  13     -51.410  21.061  21.154  0.00  0.00    +0.054 C 
BRANCH 156 157
ATOM    157  CD  GLU P  13     -51.550  22.573  21.032  0.00  0.00    +0.042 C 
ATOM    158  OE1 GLU P  13     -52.609  23.047  20.557  0.00  0.00    -0.550 OA
ATOM    159  OE2 GLU P  13     -50.609  23.295  21.426  0.00  0.00    -0.550 OA
ENDBRANCH 156 157
ENDBRANCH 155 156
ENDBRANCH 102 155
ENDBRANCH 100 102
ENDBRANCH  97  98
BRANCH  97 160
ATOM    160  CB  LEU P  12     -49.118  16.790  19.072  0.00  0.00    +0.034 C 
BRANCH 160 161
ATOM    161  CG  LEU P  12     -48.610  16.252  20.425  0.00  0.00    -0.015 C 
ATOM    162  CD1 LEU P  12     -48.934  14.759  20.655  0.00  0.00    +0.007 C 
ATOM    163  CD2 LEU P  12     -47.110  16.542  20.657  0.00  0.00    +0.007 C 
ENDBRANCH 160 161
ENDBRANCH  97 160
ENDBRANCH  95  97
ENDBRANCH  92  93
BRANCH  92 164
ATOM    164  CB  LEU P  11     -52.019  16.973  14.404  0.00  0.00    +0.034 C 
BRANCH 164 165
ATOM    165  CG  LEU P  11     -52.543  17.568  13.096  0.00  0.00    -0.015 C 
ATOM    166  CD1 LEU P  11     -52.039  16.775  11.913  0.00  0.00    +0.007 C 
ATOM    167  CD2 LEU P  11     -54.065  17.622  13.111  0.00  0.00    +0.007 C 
ENDBRANCH 164 165
ENDBRANCH  92 164
ENDBRANCH  90  92
ENDBRANCH  87  88
BRANCH  87 168
ATOM    168  CB  MET P  10     -52.303  22.334  15.689  0.00  0.00    +0.042 C 
BRANCH 168 169
ATOM    169  CG  MET P  10     -53.679  22.818  16.096  0.00  0.00    +0.071 C 
BRANCH 169 170
ATOM    170  SD  MET P  10     -54.130  24.314  15.173  0.00  0.00    -0.164 S 
ATOM    171  CE  MET P  10     -53.108  24.119  13.756  0.00  0.00    +0.084 C 
ENDBRANCH 169 170
ENDBRANCH 168 169
ENDBRANCH  87 168
ENDBRANCH   3  87
TORSDOF 69
