
 OpenBabel10112400443D

 27 29  0  0  0  0  0  0  0  0999 V2000
  -51.4690   23.5560   -5.8010 C   0  0  0  0  0  0  0  0  0  0  0  0
  -51.8480   24.9720   -6.0180 C   0  0  0  0  0  3  0  0  0  0  0  0
  -51.3170   25.9960   -5.1800 C   0  0  0  0  0  0  0  0  0  0  0  0
  -50.3820   25.6230   -4.0900 C   0  0  0  0  0  0  0  0  0  0  0  0
  -50.0210   24.2920   -3.8780 C   0  0  0  0  0  0  0  0  0  0  0  0
  -50.5720   23.2270   -4.7470 C   0  0  0  0  0  3  0  0  0  0  0  0
  -49.7730   26.6390   -3.1590 C   0  0  0  0  0  0  0  0  0  0  0  0
  -48.8480   26.1540   -2.1170 C   0  0  0  0  0  0  0  0  0  0  0  0
  -48.5930   24.8410   -2.0090 C   0  0  0  0  0  0  0  0  0  0  0  0
  -49.1410   23.9440   -2.8480 O   0  0  0  0  0  0  0  0  0  0  0  0
  -50.0190   27.8310   -3.2440 O   0  0  0  0  0  0  0  0  0  0  0  0
  -47.6630   24.2840   -0.9500 C   0  0  0  0  0  0  0  0  0  0  0  0
  -48.2390   23.3740    0.0710 C   0  0  0  0  0  3  0  0  0  0  0  0
  -47.4270   22.8210    1.0780 C   0  0  0  0  0  3  0  0  0  0  0  0
  -45.9830   23.1400    1.1330 C   0  0  0  0  0  0  0  0  0  0  0  0
  -45.4150   24.0160    0.1670 C   0  0  0  0  0  0  0  0  0  0  0  0
  -46.2760   24.6070   -0.8880 C   0  0  0  0  0  3  0  0  0  0  0  0
  -45.1930   22.5730    2.1360 O   0  0  0  0  0  0  0  0  0  0  0  0
  -45.5790   21.9970    2.7670 H   0  0  0  0  0  0  0  0  0  0  0  0
  -44.0480   24.3060    0.2320 O   0  0  0  0  0  0  0  0  0  0  0  0
  -43.5200   23.9230    0.9050 H   0  0  0  0  0  0  0  0  0  0  0  0
  -52.0040   22.5730   -6.6370 O   0  0  0  0  0  0  0  0  0  0  0  0
  -52.5940   22.8120   -7.3250 H   0  0  0  0  0  0  0  0  0  0  0  0
  -51.6610   27.3370   -5.3690 O   0  0  0  0  0  0  0  0  0  0  0  0
  -52.2510   27.5760   -6.0560 H   0  0  0  0  0  0  0  0  0  0  0  0
  -48.2530   27.0260   -1.2900 O   0  0  0  0  0  0  0  0  0  0  0  0
  -48.4330   27.9430   -1.3660 H   0  0  0  0  0  0  0  0  0  0  0  0
  1  6  1  0  0  0  0
  2  1  2  0  0  0  0
  2  3  1  0  0  0  0
  3  4  2  0  0  0  0
  4  5  1  0  0  0  0
  4  7  1  0  0  0  0
  5 10  1  0  0  0  0
  6  5  2  0  0  0  0
  7  8  1  0  0  0  0
  8  9  2  0  0  0  0
  8 26  1  0  0  0  0
  9 12  1  0  0  0  0
 10  9  1  0  0  0  0
 11  7  2  0  0  0  0
 12 17  2  0  0  0  0
 12 13  1  0  0  0  0
 13 14  2  0  0  0  0
 14 15  1  0  0  0  0
 15 18  1  0  0  0  0
 16 20  1  0  0  0  0
 16 15  2  0  0  0  0
 17 16  1  0  0  0  0
 18 19  1  0  0  0  0
 20 21  1  0  0  0  0
 22  1  1  0  0  0  0
 23 22  1  0  0  0  0
 24  3  1  0  0  0  0
 25 24  1  0  0  0  0
 27 26  1  0  0  0  0
M  END
>  <minimizedAffinity>
-5.38777018

$$$$

 OpenBabel10112400443D

 27 29  0  0  0  0  0  0  0  0999 V2000
  -48.3120   22.9520    1.6580 C   0  0  0  0  0  0  0  0  0  0  0  0
  -46.8600   23.1040    1.4050 C   0  0  0  0  0  3  0  0  0  0  0  0
  -46.3900   23.4900    0.1160 C   0  0  0  0  0  0  0  0  0  0  0  0
  -47.3750   23.7370   -0.9670 C   0  0  0  0  0  0  0  0  0  0  0  0
  -48.7440   23.5950   -0.7380 C   0  0  0  0  0  0  0  0  0  0  0  0
  -49.2330   23.1940    0.6010 C   0  0  0  0  0  3  0  0  0  0  0  0
  -46.9680   24.1490   -2.3580 C   0  0  0  0  0  0  0  0  0  0  0  0
  -48.0340   24.3770   -3.3510 C   0  0  0  0  0  0  0  0  0  0  0  0
  -49.3170   24.1930   -3.0060 C   0  0  0  0  0  0  0  0  0  0  0  0
  -49.6680   23.8270   -1.7600 O   0  0  0  0  0  0  0  0  0  0  0  0
  -45.7990   24.2990   -2.6770 O   0  0  0  0  0  0  0  0  0  0  0  0
  -50.4530   24.3980   -3.9880 C   0  0  0  0  0  0  0  0  0  0  0  0
  -51.1030   23.1920   -4.5600 C   0  0  0  0  0  3  0  0  0  0  0  0
  -52.1660   23.3160   -5.4730 C   0  0  0  0  0  3  0  0  0  0  0  0
  -52.6530   24.6550   -5.8770 C   0  0  0  0  0  0  0  0  0  0  0  0
  -52.0380   25.8210   -5.3440 C   0  0  0  0  0  0  0  0  0  0  0  0
  -50.9090   25.6880   -4.3890 C   0  0  0  0  0  3  0  0  0  0  0  0
  -53.7160   24.7540   -6.7780 O   0  0  0  0  0  0  0  0  0  0  0  0
  -54.1130   23.9780   -7.1220 H   0  0  0  0  0  0  0  0  0  0  0  0
  -52.5110   27.0780   -5.7350 O   0  0  0  0  0  0  0  0  0  0  0  0
  -53.2250   27.1430   -6.3390 H   0  0  0  0  0  0  0  0  0  0  0  0
  -48.7450   22.5730    2.9310 O   0  0  0  0  0  0  0  0  0  0  0  0
  -48.1200   22.4180    3.6120 H   0  0  0  0  0  0  0  0  0  0  0  0
  -45.0250   23.6390   -0.1430 O   0  0  0  0  0  0  0  0  0  0  0  0
  -44.4010   23.4840    0.5380 H   0  0  0  0  0  0  0  0  0  0  0  0
  -47.7210   24.7820   -4.5900 O   0  0  0  0  0  0  0  0  0  0  0  0
  -46.8230   24.9090   -4.8300 H   0  0  0  0  0  0  0  0  0  0  0  0
  1 22  1  0  0  0  0
  2  1  1  0  0  0  0
  3  2  2  0  0  0  0
  4  5  2  0  0  0  0
  4  3  1  0  0  0  0
  5  6  1  0  0  0  0
  6  1  2  0  0  0  0
  7  4  1  0  0  0  0
  8  9  2  0  0  0  0
  8  7  1  0  0  0  0
  9 10  1  0  0  0  0
 10  5  1  0  0  0  0
 11  7  2  0  0  0  0
 12  9  1  0  0  0  0
 13 12  2  0  0  0  0
 14 13  1  0  0  0  0
 15 14  2  0  0  0  0
 15 16  1  0  0  0  0
 16 17  2  0  0  0  0
 17 12  1  0  0  0  0
 18 15  1  0  0  0  0
 19 18  1  0  0  0  0
 20 16  1  0  0  0  0
 21 20  1  0  0  0  0
 22 23  1  0  0  0  0
 24  3  1  0  0  0  0
 24 25  1  0  0  0  0
 26  8  1  0  0  0  0
 27 26  1  0  0  0  0
M  END
>  <minimizedAffinity>
-4.78125381

$$$$
