
 OpenBabel10112400403D

 27 29  0  0  0  0  0  0  0  0999 V2000
    1.8110  -40.0640   46.0520 C   0  0  0  0  0  0  0  0  0  0  0  0
    0.9830  -39.9450   47.2750 C   0  0  0  0  0  3  0  0  0  0  0  0
   -0.2200  -40.6980   47.4060 C   0  0  0  0  0  0  0  0  0  0  0  0
   -0.6300  -41.6010   46.3020 C   0  0  0  0  0  0  0  0  0  0  0  0
    0.1430  -41.7180   45.1460 C   0  0  0  0  0  0  0  0  0  0  0  0
    1.3930  -40.9360   45.0090 C   0  0  0  0  0  3  0  0  0  0  0  0
   -1.8840  -42.4340   46.3560 C   0  0  0  0  0  0  0  0  0  0  0  0
   -2.1860  -43.3040   45.2040 C   0  0  0  0  0  0  0  0  0  0  0  0
   -1.3650  -43.3150   44.1430 C   0  0  0  0  0  0  0  0  0  0  0  0
   -0.2470  -42.5680   44.1080 O   0  0  0  0  0  0  0  0  0  0  0  0
   -2.6420  -42.4100   47.3130 O   0  0  0  0  0  0  0  0  0  0  0  0
   -1.6320  -44.1760   42.9250 C   0  0  0  0  0  0  0  0  0  0  0  0
   -1.1230  -45.5710   42.9350 C   0  0  0  0  0  3  0  0  0  0  0  0
   -1.3430  -46.4210   41.8360 C   0  0  0  0  0  3  0  0  0  0  0  0
   -2.0870  -45.9360   40.6510 C   0  0  0  0  0  0  0  0  0  0  0  0
   -2.5760  -44.6000   40.6220 C   0  0  0  0  0  0  0  0  0  0  0  0
   -2.3330  -43.7020   41.7780 C   0  0  0  0  0  3  0  0  0  0  0  0
   -2.3010  -46.8000   39.5750 O   0  0  0  0  0  0  0  0  0  0  0  0
   -1.9740  -47.6780   39.6060 H   0  0  0  0  0  0  0  0  0  0  0  0
   -3.2780  -44.1580   39.4960 O   0  0  0  0  0  0  0  0  0  0  0  0
   -3.4220  -44.7400   38.7750 H   0  0  0  0  0  0  0  0  0  0  0  0
    2.9850  -39.3140   45.9500 O   0  0  0  0  0  0  0  0  0  0  0  0
    3.2410  -38.7460   46.6500 H   0  0  0  0  0  0  0  0  0  0  0  0
   -1.0140  -40.6010   48.5520 O   0  0  0  0  0  0  0  0  0  0  0  0
   -0.7590  -40.0320   49.2510 H   0  0  0  0  0  0  0  0  0  0  0  0
   -3.2720  -44.0910   45.2240 O   0  0  0  0  0  0  0  0  0  0  0  0
   -3.8450  -44.0810   45.9660 H   0  0  0  0  0  0  0  0  0  0  0  0
  1  2  1  0  0  0  0
  2  3  2  0  0  0  0
  3 24  1  0  0  0  0
  4  7  1  0  0  0  0
  4  3  1  0  0  0  0
  5  4  2  0  0  0  0
  6  5  1  0  0  0  0
  6  1  2  0  0  0  0
  7 11  2  0  0  0  0
  8 26  1  0  0  0  0
  8  7  1  0  0  0  0
  9  8  2  0  0  0  0
 10  9  1  0  0  0  0
 10  5  1  0  0  0  0
 12 13  1  0  0  0  0
 12  9  1  0  0  0  0
 14 13  2  0  0  0  0
 15 14  1  0  0  0  0
 16 15  2  0  0  0  0
 16 17  1  0  0  0  0
 17 12  2  0  0  0  0
 18 19  1  0  0  0  0
 18 15  1  0  0  0  0
 20 16  1  0  0  0  0
 21 20  1  0  0  0  0
 22  1  1  0  0  0  0
 22 23  1  0  0  0  0
 24 25  1  0  0  0  0
 26 27  1  0  0  0  0
M  END
>  <minimizedAffinity>
-9.64315128

$$$$

 OpenBabel10112400403D

 27 29  0  0  0  0  0  0  0  0999 V2000
    1.7370  -39.9910   46.1310 C   0  0  0  0  0  0  0  0  0  0  0  0
    0.8240  -39.7830   47.2790 C   0  0  0  0  0  3  0  0  0  0  0  0
   -0.4030  -40.5050   47.3640 C   0  0  0  0  0  0  0  0  0  0  0  0
   -0.7500  -41.4660   46.2880 C   0  0  0  0  0  0  0  0  0  0  0  0
    0.1040  -41.6680   45.2030 C   0  0  0  0  0  0  0  0  0  0  0  0
    1.3780  -40.9180   45.1140 C   0  0  0  0  0  3  0  0  0  0  0  0
   -2.0230  -42.2720   46.2970 C   0  0  0  0  0  0  0  0  0  0  0  0
   -2.2580  -43.2050   45.1800 C   0  0  0  0  0  0  0  0  0  0  0  0
   -1.3610  -43.2960   44.1860 C   0  0  0  0  0  0  0  0  0  0  0  0
   -0.2270  -42.5730   44.1900 O   0  0  0  0  0  0  0  0  0  0  0  0
   -2.8490  -42.1760   47.1910 O   0  0  0  0  0  0  0  0  0  0  0  0
   -1.5560  -44.2260   43.0060 C   0  0  0  0  0  0  0  0  0  0  0  0
   -2.1120  -43.6530   41.7540 C   0  0  0  0  0  3  0  0  0  0  0  0
   -2.3130  -44.4630   40.6220 C   0  0  0  0  0  3  0  0  0  0  0  0
   -1.9720  -45.9030   40.6620 C   0  0  0  0  0  0  0  0  0  0  0  0
   -1.4450  -46.4710   41.8560 C   0  0  0  0  0  0  0  0  0  0  0  0
   -1.2440  -45.6160   43.0530 C   0  0  0  0  0  3  0  0  0  0  0  0
   -2.1710  -46.6880   39.5240 O   0  0  0  0  0  0  0  0  0  0  0  0
   -2.5180  -46.3010   38.7440 H   0  0  0  0  0  0  0  0  0  0  0  0
   -1.1260  -47.8330   41.8770 O   0  0  0  0  0  0  0  0  0  0  0  0
   -1.2590  -48.3570   41.1120 H   0  0  0  0  0  0  0  0  0  0  0  0
    2.9320  -39.2700   46.0730 O   0  0  0  0  0  0  0  0  0  0  0  0
    3.1480  -38.6650   46.7550 H   0  0  0  0  0  0  0  0  0  0  0  0
   -1.2770  -40.3230   48.4380 O   0  0  0  0  0  0  0  0  0  0  0  0
   -1.0620  -39.7180   49.1190 H   0  0  0  0  0  0  0  0  0  0  0  0
   -3.3590  -43.9700   45.1650 O   0  0  0  0  0  0  0  0  0  0  0  0
   -3.9860  -43.9050   45.8590 H   0  0  0  0  0  0  0  0  0  0  0  0
  1  2  1  0  0  0  0
  2  3  2  0  0  0  0
  3 24  1  0  0  0  0
  4  7  1  0  0  0  0
  4  3  1  0  0  0  0
  5  4  2  0  0  0  0
  6  5  1  0  0  0  0
  6  1  2  0  0  0  0
  7 11  2  0  0  0  0
  8  7  1  0  0  0  0
  9 10  1  0  0  0  0
  9  8  2  0  0  0  0
 10  5  1  0  0  0  0
 12 17  1  0  0  0  0
 12  9  1  0  0  0  0
 13 12  2  0  0  0  0
 14 15  2  0  0  0  0
 14 13  1  0  0  0  0
 15 16  1  0  0  0  0
 16 20  1  0  0  0  0
 16 17  2  0  0  0  0
 18 15  1  0  0  0  0
 19 18  1  0  0  0  0
 21 20  1  0  0  0  0
 22  1  1  0  0  0  0
 22 23  1  0  0  0  0
 24 25  1  0  0  0  0
 26  8  1  0  0  0  0
 26 27  1  0  0  0  0
M  END
>  <minimizedAffinity>
-9.4014349

$$$$

 OpenBabel10112400403D

 27 29  0  0  0  0  0  0  0  0999 V2000
    0.1710  -35.4380   21.8770 C   0  0  0  0  0  0  0  0  0  0  0  0
   -1.1360  -35.1760   22.5240 C   0  0  0  0  0  3  0  0  0  0  0  0
   -1.7920  -36.2030   23.2640 C   0  0  0  0  0  0  0  0  0  0  0  0
   -1.1480  -37.5350   23.3770 C   0  0  0  0  0  0  0  0  0  0  0  0
    0.0820  -37.7900   22.7700 C   0  0  0  0  0  0  0  0  0  0  0  0
    0.7650  -36.7240   22.0010 C   0  0  0  0  0  3  0  0  0  0  0  0
   -1.7690  -38.6760   24.1400 C   0  0  0  0  0  0  0  0  0  0  0  0
   -1.0320  -39.9530   24.1940 C   0  0  0  0  0  0  0  0  0  0  0  0
    0.1410  -40.0740   23.5540 C   0  0  0  0  0  0  0  0  0  0  0  0
    0.6860  -39.0470   22.8770 O   0  0  0  0  0  0  0  0  0  0  0  0
   -2.8450  -38.5720   24.7070 O   0  0  0  0  0  0  0  0  0  0  0  0
    0.9340  -41.3650   23.5610 C   0  0  0  0  0  0  0  0  0  0  0  0
    0.7920  -42.2740   22.3970 C   0  0  0  0  0  3  0  0  0  0  0  0
    1.5060  -43.4860   22.3430 C   0  0  0  0  0  3  0  0  0  0  0  0
    2.4110  -43.8720   23.4500 C   0  0  0  0  0  0  0  0  0  0  0  0
    2.5530  -43.0150   24.5770 C   0  0  0  0  0  0  0  0  0  0  0  0
    1.7910  -41.7430   24.6360 C   0  0  0  0  0  3  0  0  0  0  0  0
    3.1160  -45.0740   23.3710 O   0  0  0  0  0  0  0  0  0  0  0  0
    3.0130  -45.6300   22.6230 H   0  0  0  0  0  0  0  0  0  0  0  0
    3.4130  -43.3930   25.6130 O   0  0  0  0  0  0  0  0  0  0  0  0
    3.8870  -44.2000   25.5580 H   0  0  0  0  0  0  0  0  0  0  0  0
    0.7910  -34.4140   21.1580 O   0  0  0  0  0  0  0  0  0  0  0  0
    0.3820  -33.5740   21.0890 H   0  0  0  0  0  0  0  0  0  0  0  0
   -3.0250  -35.9760   23.8810 O   0  0  0  0  0  0  0  0  0  0  0  0
   -3.4350  -35.1360   23.8120 H   0  0  0  0  0  0  0  0  0  0  0  0
   -1.5280  -40.9840   24.8920 O   0  0  0  0  0  0  0  0  0  0  0  0
   -2.3480  -40.8980   25.3380 H   0  0  0  0  0  0  0  0  0  0  0  0
  1  6  2  0  0  0  0
  1  2  1  0  0  0  0
  2  3  2  0  0  0  0
  3  4  1  0  0  0  0
  3 24  1  0  0  0  0
  4  7  1  0  0  0  0
  5 10  1  0  0  0  0
  5  4  2  0  0  0  0
  6  5  1  0  0  0  0
  7  8  1  0  0  0  0
  7 11  2  0  0  0  0
  8 26  1  0  0  0  0
  9 12  1  0  0  0  0
  9  8  2  0  0  0  0
 10  9  1  0  0  0  0
 12 17  1  0  0  0  0
 13 12  2  0  0  0  0
 14 13  1  0  0  0  0
 14 15  2  0  0  0  0
 15 16  1  0  0  0  0
 16 17  2  0  0  0  0
 16 20  1  0  0  0  0
 18 15  1  0  0  0  0
 19 18  1  0  0  0  0
 21 20  1  0  0  0  0
 22  1  1  0  0  0  0
 23 22  1  0  0  0  0
 25 24  1  0  0  0  0
 26 27  1  0  0  0  0
M  END
>  <minimizedAffinity>
-9.22697353

$$$$

 OpenBabel10112400403D

 27 29  0  0  0  0  0  0  0  0999 V2000
   11.2010  -41.5670   17.0010 C   0  0  0  0  0  0  0  0  0  0  0  0
   11.8650  -41.2650   15.7110 C   0  0  0  0  0  3  0  0  0  0  0  0
   13.2600  -40.9720   15.6700 C   0  0  0  0  0  0  0  0  0  0  0  0
   14.0350  -40.9740   16.9360 C   0  0  0  0  0  0  0  0  0  0  0  0
   13.4170  -41.2560   18.1550 C   0  0  0  0  0  0  0  0  0  0  0  0
   11.9680  -41.5600   18.1990 C   0  0  0  0  0  3  0  0  0  0  0  0
   15.5110  -40.6770   16.9860 C   0  0  0  0  0  0  0  0  0  0  0  0
   16.1800  -40.7180   18.2990 C   0  0  0  0  0  0  0  0  0  0  0  0
   15.4670  -40.9900   19.4030 C   0  0  0  0  0  0  0  0  0  0  0  0
   14.1500  -41.2550   19.3450 O   0  0  0  0  0  0  0  0  0  0  0  0
   16.1560  -40.4110   15.9850 O   0  0  0  0  0  0  0  0  0  0  0  0
   16.0970  -41.0300   20.7810 C   0  0  0  0  0  0  0  0  0  0  0  0
   16.7870  -42.2780   21.1930 C   0  0  0  0  0  3  0  0  0  0  0  0
   17.3950  -42.3760   22.4580 C   0  0  0  0  0  3  0  0  0  0  0  0
   17.3560  -41.2330   23.3980 C   0  0  0  0  0  0  0  0  0  0  0  0
   16.6920  -40.0310   23.0230 C   0  0  0  0  0  0  0  0  0  0  0  0
   16.0420  -39.9340   21.6910 C   0  0  0  0  0  3  0  0  0  0  0  0
   17.9730  -41.3480   24.6450 O   0  0  0  0  0  0  0  0  0  0  0  0
   18.4070  -42.1450   24.8810 H   0  0  0  0  0  0  0  0  0  0  0  0
   16.6650  -38.9600   23.9210 O   0  0  0  0  0  0  0  0  0  0  0  0
   17.0820  -39.0390   24.7570 H   0  0  0  0  0  0  0  0  0  0  0  0
    9.8340  -41.8500   17.0120 O   0  0  0  0  0  0  0  0  0  0  0  0
    9.3480  -41.8490   16.2100 H   0  0  0  0  0  0  0  0  0  0  0  0
   13.9050  -40.6860   14.4640 O   0  0  0  0  0  0  0  0  0  0  0  0
   13.4190  -40.6830   13.6630 H   0  0  0  0  0  0  0  0  0  0  0  0
   17.5000  -40.4970   18.3880 O   0  0  0  0  0  0  0  0  0  0  0  0
   17.9960  -40.3060   17.6160 H   0  0  0  0  0  0  0  0  0  0  0  0
  1 22  1  0  0  0  0
  1  6  1  0  0  0  0
  2  1  2  0  0  0  0
  3  2  1  0  0  0  0
  3  4  2  0  0  0  0
  4  7  1  0  0  0  0
  4  5  1  0  0  0  0
  5  6  2  0  0  0  0
  5 10  1  0  0  0  0
  7  8  1  0  0  0  0
  8 26  1  0  0  0  0
  8  9  2  0  0  0  0
  9 12  1  0  0  0  0
 10  9  1  0  0  0  0
 11  7  2  0  0  0  0
 12 13  2  0  0  0  0
 12 17  1  0  0  0  0
 13 14  1  0  0  0  0
 14 15  2  0  0  0  0
 15 18  1  0  0  0  0
 16 15  1  0  0  0  0
 16 20  1  0  0  0  0
 17 16  2  0  0  0  0
 18 19  1  0  0  0  0
 20 21  1  0  0  0  0
 23 22  1  0  0  0  0
 24  3  1  0  0  0  0
 25 24  1  0  0  0  0
 27 26  1  0  0  0  0
M  END
>  <minimizedAffinity>
-9.1442194

$$$$

 OpenBabel10112400403D

 27 29  0  0  0  0  0  0  0  0999 V2000
   -0.7470  -39.5020   49.9870 C   0  0  0  0  0  0  0  0  0  0  0  0
    0.3590  -38.5580   49.7060 C   0  0  0  0  0  3  0  0  0  0  0  0
    1.0730  -38.6300   48.4740 C   0  0  0  0  0  0  0  0  0  0  0  0
    0.6910  -39.6630   47.4790 C   0  0  0  0  0  0  0  0  0  0  0  0
   -0.3490  -40.5570   47.7350 C   0  0  0  0  0  0  0  0  0  0  0  0
   -1.0900  -40.4840   49.0160 C   0  0  0  0  0  3  0  0  0  0  0  0
    1.3890  -39.8100   46.1520 C   0  0  0  0  0  0  0  0  0  0  0  0
    0.9180  -40.8670   45.2370 C   0  0  0  0  0  0  0  0  0  0  0  0
   -0.0880  -41.6730   45.6100 C   0  0  0  0  0  0  0  0  0  0  0  0
   -0.7040  -41.5300   46.7970 O   0  0  0  0  0  0  0  0  0  0  0  0
    2.3170  -39.0900   45.8200 O   0  0  0  0  0  0  0  0  0  0  0  0
   -0.6030  -42.7850   44.7180 C   0  0  0  0  0  0  0  0  0  0  0  0
    0.0810  -44.1000   44.7810 C   0  0  0  0  0  3  0  0  0  0  0  0
   -0.3540  -45.1730   43.9810 C   0  0  0  0  0  3  0  0  0  0  0  0
   -1.5030  -45.0040   43.0630 C   0  0  0  0  0  0  0  0  0  0  0  0
   -2.1660  -43.7480   42.9850 C   0  0  0  0  0  0  0  0  0  0  0  0
   -1.6990  -42.6150   43.8220 C   0  0  0  0  0  3  0  0  0  0  0  0
   -1.9230  -46.0850   42.2850 O   0  0  0  0  0  0  0  0  0  0  0  0
   -1.4780  -46.9080   42.3460 H   0  0  0  0  0  0  0  0  0  0  0  0
   -3.2510  -43.6060   42.1140 O   0  0  0  0  0  0  0  0  0  0  0  0
   -3.5330  -44.3320   41.5930 H   0  0  0  0  0  0  0  0  0  0  0  0
   -1.4300  -39.4100   51.2020 O   0  0  0  0  0  0  0  0  0  0  0  0
   -1.1860  -38.7550   51.8270 H   0  0  0  0  0  0  0  0  0  0  0  0
    2.1190  -37.7490   48.1900 O   0  0  0  0  0  0  0  0  0  0  0  0
    2.3620  -37.0950   48.8150 H   0  0  0  0  0  0  0  0  0  0  0  0
    1.4840  -41.0110   44.0300 O   0  0  0  0  0  0  0  0  0  0  0  0
    2.1870  -40.4480   43.7710 H   0  0  0  0  0  0  0  0  0  0  0  0
  1 22  1  0  0  0  0
  2  1  1  0  0  0  0
  3  2  2  0  0  0  0
  4  5  2  0  0  0  0
  4  3  1  0  0  0  0
  5  6  1  0  0  0  0
  6  1  2  0  0  0  0
  7  4  1  0  0  0  0
  8  9  2  0  0  0  0
  8  7  1  0  0  0  0
  9 10  1  0  0  0  0
 10  5  1  0  0  0  0
 11  7  2  0  0  0  0
 12 13  1  0  0  0  0
 12  9  1  0  0  0  0
 14 13  2  0  0  0  0
 15 14  1  0  0  0  0
 16 15  2  0  0  0  0
 16 17  1  0  0  0  0
 17 12  2  0  0  0  0
 18 19  1  0  0  0  0
 18 15  1  0  0  0  0
 20 16  1  0  0  0  0
 21 20  1  0  0  0  0
 22 23  1  0  0  0  0
 24  3  1  0  0  0  0
 24 25  1  0  0  0  0
 26  8  1  0  0  0  0
 27 26  1  0  0  0  0
M  END
>  <minimizedAffinity>
-8.98241425

$$$$

 OpenBabel10112400403D

 27 29  0  0  0  0  0  0  0  0999 V2000
   15.9060  -39.1270   18.1770 C   0  0  0  0  0  0  0  0  0  0  0  0
   14.8340  -40.0640   17.7660 C   0  0  0  0  0  3  0  0  0  0  0  0
   14.6670  -41.3080   18.4410 C   0  0  0  0  0  0  0  0  0  0  0  0
   15.5800  -41.6500   19.5600 C   0  0  0  0  0  0  0  0  0  0  0  0
   16.5930  -40.7740   19.9530 C   0  0  0  0  0  0  0  0  0  0  0  0
   16.7680  -39.4810   19.2520 C   0  0  0  0  0  3  0  0  0  0  0  0
   15.4750  -42.9410   20.3290 C   0  0  0  0  0  0  0  0  0  0  0  0
   16.4310  -43.1700   21.4290 C   0  0  0  0  0  0  0  0  0  0  0  0
   17.3700  -42.2500   21.6990 C   0  0  0  0  0  0  0  0  0  0  0  0
   17.4520  -41.1000   21.0060 O   0  0  0  0  0  0  0  0  0  0  0  0
   14.6340  -43.7870   20.0710 O   0  0  0  0  0  0  0  0  0  0  0  0
   18.3880  -42.4370   22.8060 C   0  0  0  0  0  0  0  0  0  0  0  0
   18.1390  -41.7560   24.1010 C   0  0  0  0  0  3  0  0  0  0  0  0
   19.0450  -41.8940   25.1680 C   0  0  0  0  0  3  0  0  0  0  0  0
   20.2610  -42.7240   25.0160 C   0  0  0  0  0  0  0  0  0  0  0  0
   20.5190  -43.3790   23.7800 C   0  0  0  0  0  0  0  0  0  0  0  0
   19.5680  -43.2220   22.6510 C   0  0  0  0  0  3  0  0  0  0  0  0
   21.1420  -42.8540   26.0920 O   0  0  0  0  0  0  0  0  0  0  0  0
   20.9610  -42.4180   26.9010 H   0  0  0  0  0  0  0  0  0  0  0  0
   21.6720  -44.1600   23.6520 O   0  0  0  0  0  0  0  0  0  0  0  0
   22.2610  -44.2480   24.3750 H   0  0  0  0  0  0  0  0  0  0  0  0
   16.0470  -37.9140   17.4980 O   0  0  0  0  0  0  0  0  0  0  0  0
   15.4680  -37.7010   16.7930 H   0  0  0  0  0  0  0  0  0  0  0  0
   13.6630  -42.2050   18.0680 O   0  0  0  0  0  0  0  0  0  0  0  0
   13.0840  -41.9930   17.3630 H   0  0  0  0  0  0  0  0  0  0  0  0
   16.3520  -44.2880   22.1650 O   0  0  0  0  0  0  0  0  0  0  0  0
   15.6960  -44.9300   21.9740 H   0  0  0  0  0  0  0  0  0  0  0  0
  1  6  1  0  0  0  0
  2  1  2  0  0  0  0
  2  3  1  0  0  0  0
  3  4  2  0  0  0  0
  4  5  1  0  0  0  0
  4  7  1  0  0  0  0
  5 10  1  0  0  0  0
  6  5  2  0  0  0  0
  7  8  1  0  0  0  0
  8  9  2  0  0  0  0
  8 26  1  0  0  0  0
  9 12  1  0  0  0  0
 10  9  1  0  0  0  0
 11  7  2  0  0  0  0
 12 13  1  0  0  0  0
 13 14  2  0  0  0  0
 15 14  1  0  0  0  0
 15 18  1  0  0  0  0
 16 15  2  0  0  0  0
 17 12  2  0  0  0  0
 17 16  1  0  0  0  0
 18 19  1  0  0  0  0
 20 16  1  0  0  0  0
 20 21  1  0  0  0  0
 22  1  1  0  0  0  0
 23 22  1  0  0  0  0
 24  3  1  0  0  0  0
 25 24  1  0  0  0  0
 27 26  1  0  0  0  0
M  END
>  <minimizedAffinity>
-8.97935104

$$$$

 OpenBabel10112400403D

 27 29  0  0  0  0  0  0  0  0999 V2000
   -2.1220  -36.9120   23.2500 C   0  0  0  0  0  0  0  0  0  0  0  0
   -1.1680  -36.0580   22.5050 C   0  0  0  0  0  3  0  0  0  0  0  0
    0.0170  -36.6200   21.9470 C   0  0  0  0  0  0  0  0  0  0  0  0
    0.2810  -38.0700   22.1230 C   0  0  0  0  0  0  0  0  0  0  0  0
   -0.6120  -38.8810   22.8240 C   0  0  0  0  0  0  0  0  0  0  0  0
   -1.8440  -38.2990   23.4050 C   0  0  0  0  0  3  0  0  0  0  0  0
    1.5060  -38.7470   21.5660 C   0  0  0  0  0  0  0  0  0  0  0  0
    1.6590  -40.1960   21.7940 C   0  0  0  0  0  0  0  0  0  0  0  0
    0.7310  -40.8620   22.4990 C   0  0  0  0  0  0  0  0  0  0  0  0
   -0.3590  -40.2460   22.9890 O   0  0  0  0  0  0  0  0  0  0  0  0
    2.3600  -38.1380   20.9410 O   0  0  0  0  0  0  0  0  0  0  0  0
    0.8420  -42.3470   22.7770 C   0  0  0  0  0  0  0  0  0  0  0  0
    0.6370  -43.2840   21.6440 C   0  0  0  0  0  3  0  0  0  0  0  0
    0.7300  -44.6740   21.8380 C   0  0  0  0  0  3  0  0  0  0  0  0
    1.0380  -45.2240   23.1780 C   0  0  0  0  0  0  0  0  0  0  0  0
    1.2310  -44.3410   24.2760 C   0  0  0  0  0  0  0  0  0  0  0  0
    1.1200  -42.8750   24.0720 C   0  0  0  0  0  3  0  0  0  0  0  0
    1.1350  -46.6070   23.3450 O   0  0  0  0  0  0  0  0  0  0  0  0
    1.0060  -47.1780   22.6130 H   0  0  0  0  0  0  0  0  0  0  0  0
    1.5220  -44.8770   25.5350 O   0  0  0  0  0  0  0  0  0  0  0  0
    1.5880  -45.8050   25.6460 H   0  0  0  0  0  0  0  0  0  0  0  0
   -3.2760  -36.3360   23.7870 O   0  0  0  0  0  0  0  0  0  0  0  0
   -3.4390  -35.4210   23.6730 H   0  0  0  0  0  0  0  0  0  0  0  0
    0.9290  -35.8310   21.2410 O   0  0  0  0  0  0  0  0  0  0  0  0
    0.7670  -34.9160   21.1280 H   0  0  0  0  0  0  0  0  0  0  0  0
    2.7140  -40.8470   21.2850 O   0  0  0  0  0  0  0  0  0  0  0  0
    3.3620  -40.3810   20.7930 H   0  0  0  0  0  0  0  0  0  0  0  0
  1  6  1  0  0  0  0
  1 22  1  0  0  0  0
  2  1  2  0  0  0  0
  3  4  2  0  0  0  0
  3  2  1  0  0  0  0
  4  5  1  0  0  0  0
  5 10  1  0  0  0  0
  5  6  2  0  0  0  0
  7  8  1  0  0  0  0
  7  4  1  0  0  0  0
  8  9  2  0  0  0  0
  9 12  1  0  0  0  0
  9 10  1  0  0  0  0
 11  7  2  0  0  0  0
 12 17  1  0  0  0  0
 13 14  1  0  0  0  0
 13 12  2  0  0  0  0
 14 15  2  0  0  0  0
 15 18  1  0  0  0  0
 15 16  1  0  0  0  0
 16 20  1  0  0  0  0
 17 16  2  0  0  0  0
 19 18  1  0  0  0  0
 20 21  1  0  0  0  0
 23 22  1  0  0  0  0
 24  3  1  0  0  0  0
 25 24  1  0  0  0  0
 26  8  1  0  0  0  0
 27 26  1  0  0  0  0
M  END
>  <minimizedAffinity>
-8.70598984

$$$$

 OpenBabel10112400403D

 27 29  0  0  0  0  0  0  0  0999 V2000
   11.9110  -42.2260   12.2100 C   0  0  0  0  0  0  0  0  0  0  0  0
   10.6160  -42.6500   12.7910 C   0  0  0  0  0  3  0  0  0  0  0  0
   10.3800  -42.5290   14.1920 C   0  0  0  0  0  0  0  0  0  0  0  0
   11.4500  -41.9730   15.0580 C   0  0  0  0  0  0  0  0  0  0  0  0
   12.6730  -41.5720   14.5190 C   0  0  0  0  0  0  0  0  0  0  0  0
   12.9190  -41.6980   13.0640 C   0  0  0  0  0  3  0  0  0  0  0  0
   11.2870  -41.8090   16.5460 C   0  0  0  0  0  0  0  0  0  0  0  0
   12.4140  -41.2350   17.3060 C   0  0  0  0  0  0  0  0  0  0  0  0
   13.5460  -40.9010   16.6690 C   0  0  0  0  0  0  0  0  0  0  0  0
   13.6790  -41.0510   15.3380 O   0  0  0  0  0  0  0  0  0  0  0  0
   10.2640  -42.1300   17.1300 O   0  0  0  0  0  0  0  0  0  0  0  0
   14.7410  -40.3220   17.3980 C   0  0  0  0  0  0  0  0  0  0  0  0
   15.2340  -41.0360   18.6020 C   0  0  0  0  0  3  0  0  0  0  0  0
   16.3410  -40.5510   19.3210 C   0  0  0  0  0  3  0  0  0  0  0  0
   17.0350  -39.3180   18.8840 C   0  0  0  0  0  0  0  0  0  0  0  0
   16.5730  -38.6170   17.7360 C   0  0  0  0  0  0  0  0  0  0  0  0
   15.3960  -39.1250   16.9860 C   0  0  0  0  0  3  0  0  0  0  0  0
   18.1390  -38.8590   19.6060 O   0  0  0  0  0  0  0  0  0  0  0  0
   18.4330  -39.3310   20.3610 H   0  0  0  0  0  0  0  0  0  0  0  0
   17.2400  -37.4540   17.3350 O   0  0  0  0  0  0  0  0  0  0  0  0
   17.9810  -37.1490   17.8210 H   0  0  0  0  0  0  0  0  0  0  0  0
   12.1160  -42.3550   10.8340 O   0  0  0  0  0  0  0  0  0  0  0  0
   11.4370  -42.7060   10.2910 H   0  0  0  0  0  0  0  0  0  0  0  0
    9.1660  -42.9230   14.7590 O   0  0  0  0  0  0  0  0  0  0  0  0
    8.4880  -43.2750   14.2150 H   0  0  0  0  0  0  0  0  0  0  0  0
   12.3000  -41.0360   18.6270 O   0  0  0  0  0  0  0  0  0  0  0  0
   11.5090  -41.2710   19.0710 H   0  0  0  0  0  0  0  0  0  0  0  0
  1  2  2  0  0  0  0
  1  6  1  0  0  0  0
  2  3  1  0  0  0  0
  3 24  1  0  0  0  0
  3  4  2  0  0  0  0
  4  7  1  0  0  0  0
  5  4  1  0  0  0  0
  5 10  1  0  0  0  0
  6  5  2  0  0  0  0
  7 11  2  0  0  0  0
  7  8  1  0  0  0  0
  8 26  1  0  0  0  0
  9  8  2  0  0  0  0
  9 12  1  0  0  0  0
 10  9  1  0  0  0  0
 12 13  1  0  0  0  0
 13 14  2  0  0  0  0
 15 14  1  0  0  0  0
 15 18  1  0  0  0  0
 16 15  2  0  0  0  0
 17 12  2  0  0  0  0
 17 16  1  0  0  0  0
 18 19  1  0  0  0  0
 20 16  1  0  0  0  0
 20 21  1  0  0  0  0
 22  1  1  0  0  0  0
 23 22  1  0  0  0  0
 25 24  1  0  0  0  0
 26 27  1  0  0  0  0
M  END
>  <minimizedAffinity>
-8.59096527

$$$$

 OpenBabel10112400403D

 27 29  0  0  0  0  0  0  0  0999 V2000
    3.6590  -38.9670   49.3560 C   0  0  0  0  0  0  0  0  0  0  0  0
    2.8350  -38.9030   50.5860 C   0  0  0  0  0  3  0  0  0  0  0  0
    1.5500  -39.5200   50.6240 C   0  0  0  0  0  0  0  0  0  0  0  0
    1.0520  -40.2260   49.4180 C   0  0  0  0  0  0  0  0  0  0  0  0
    1.8210  -40.2900   48.2550 C   0  0  0  0  0  0  0  0  0  0  0  0
    3.1560  -39.6490   48.2140 C   0  0  0  0  0  3  0  0  0  0  0  0
   -0.2920  -40.9060   49.3710 C   0  0  0  0  0  0  0  0  0  0  0  0
   -0.6790  -41.5850   48.1210 C   0  0  0  0  0  0  0  0  0  0  0  0
    0.1490  -41.5630   47.0650 C   0  0  0  0  0  0  0  0  0  0  0  0
    1.3470  -40.9540   47.1200 O   0  0  0  0  0  0  0  0  0  0  0  0
   -1.0540  -40.9100   50.3240 O   0  0  0  0  0  0  0  0  0  0  0  0
   -0.2010  -42.2310   45.7510 C   0  0  0  0  0  0  0  0  0  0  0  0
   -1.1680  -41.5450   44.8580 C   0  0  0  0  0  3  0  0  0  0  0  0
   -1.5310  -42.1120   43.6230 C   0  0  0  0  0  3  0  0  0  0  0  0
   -0.9510  -43.4040   43.1940 C   0  0  0  0  0  0  0  0  0  0  0  0
   -0.0270  -44.0800   44.0390 C   0  0  0  0  0  0  0  0  0  0  0  0
    0.3450  -43.4840   45.3480 C   0  0  0  0  0  3  0  0  0  0  0  0
   -1.3180  -43.9450   41.9590 O   0  0  0  0  0  0  0  0  0  0  0  0
   -1.9270  -43.4900   41.4120 H   0  0  0  0  0  0  0  0  0  0  0  0
    0.5130  -45.2990   43.6190 O   0  0  0  0  0  0  0  0  0  0  0  0
    0.2670  -45.6600   42.7890 H   0  0  0  0  0  0  0  0  0  0  0  0
    4.9140  -38.3550   49.3450 O   0  0  0  0  0  0  0  0  0  0  0  0
    5.2260  -37.9110   50.1090 H   0  0  0  0  0  0  0  0  0  0  0  0
    0.7580  -39.4710   51.7740 O   0  0  0  0  0  0  0  0  0  0  0  0
    1.0690  -39.0260   52.5380 H   0  0  0  0  0  0  0  0  0  0  0  0
   -1.8490  -42.2360   48.0450 O   0  0  0  0  0  0  0  0  0  0  0  0
   -2.4270  -42.2500   48.7830 H   0  0  0  0  0  0  0  0  0  0  0  0
  1  2  1  0  0  0  0
  2  3  2  0  0  0  0
  3 24  1  0  0  0  0
  4  3  1  0  0  0  0
  5  4  2  0  0  0  0
  6  5  1  0  0  0  0
  6  1  2  0  0  0  0
  7  4  1  0  0  0  0
  7 11  2  0  0  0  0
  8  7  1  0  0  0  0
  9 10  1  0  0  0  0
  9  8  2  0  0  0  0
 10  5  1  0  0  0  0
 12  9  1  0  0  0  0
 13 12  2  0  0  0  0
 14 13  1  0  0  0  0
 15 14  2  0  0  0  0
 15 16  1  0  0  0  0
 16 17  2  0  0  0  0
 17 12  1  0  0  0  0
 18 15  1  0  0  0  0
 19 18  1  0  0  0  0
 20 16  1  0  0  0  0
 21 20  1  0  0  0  0
 22  1  1  0  0  0  0
 22 23  1  0  0  0  0
 24 25  1  0  0  0  0
 26  8  1  0  0  0  0
 26 27  1  0  0  0  0
M  END
>  <minimizedAffinity>
-8.51818466

$$$$
