
 OpenBabel10122400283D

 27 29  0  0  0  0  0  0  0  0999 V2000
  -51.2560   48.1770   13.4640 C   0  0  0  0  0  0  0  0  0  0  0  0
  -51.7070   47.2720   14.5470 C   0  0  0  0  0  3  0  0  0  0  0  0
  -51.6720   47.7030   15.9060 C   0  0  0  0  0  0  0  0  0  0  0  0
  -51.1800   49.0680   16.2180 C   0  0  0  0  0  0  0  0  0  0  0  0
  -50.7540   49.9260   15.2040 C   0  0  0  0  0  0  0  0  0  0  0  0
  -50.7880   49.4790   13.7920 C   0  0  0  0  0  3  0  0  0  0  0  0
  -51.1110   49.6060   17.6240 C   0  0  0  0  0  0  0  0  0  0  0  0
  -50.6150   50.9810   17.8140 C   0  0  0  0  0  0  0  0  0  0  0  0
  -50.2210   51.7010   16.7520 C   0  0  0  0  0  0  0  0  0  0  0  0
  -50.2890   51.2100   15.5020 O   0  0  0  0  0  0  0  0  0  0  0  0
  -51.4520   48.9440   18.5920 O   0  0  0  0  0  0  0  0  0  0  0  0
  -49.6880   53.1130   16.8880 C   0  0  0  0  0  0  0  0  0  0  0  0
  -50.6500   54.2350   16.7510 C   0  0  0  0  0  3  0  0  0  0  0  0
  -50.2180   55.5680   16.8700 C   0  0  0  0  0  3  0  0  0  0  0  0
  -48.7930   55.8720   17.1360 C   0  0  0  0  0  0  0  0  0  0  0  0
  -47.8560   54.8100   17.2630 C   0  0  0  0  0  0  0  0  0  0  0  0
  -48.3130   53.4040   17.1250 C   0  0  0  0  0  3  0  0  0  0  0  0
  -48.3870   57.2030   17.2600 O   0  0  0  0  0  0  0  0  0  0  0  0
  -49.0150   57.8940   17.1740 H   0  0  0  0  0  0  0  0  0  0  0  0
  -46.5140   55.1130   17.5150 O   0  0  0  0  0  0  0  0  0  0  0  0
  -46.2440   56.0070   17.5990 H   0  0  0  0  0  0  0  0  0  0  0  0
  -51.3000   47.7290   12.1410 O   0  0  0  0  0  0  0  0  0  0  0  0
  -51.6120   46.8670   11.9490 H   0  0  0  0  0  0  0  0  0  0  0  0
  -52.0920   46.8650   16.9420 O   0  0  0  0  0  0  0  0  0  0  0  0
  -52.4040   46.0030   16.7490 H   0  0  0  0  0  0  0  0  0  0  0  0
  -50.5710   51.5150   19.0430 O   0  0  0  0  0  0  0  0  0  0  0  0
  -50.8460   51.0100   19.7840 H   0  0  0  0  0  0  0  0  0  0  0  0
  1  6  2  0  0  0  0
  1  2  1  0  0  0  0
  2  3  2  0  0  0  0
  3  4  1  0  0  0  0
  3 24  1  0  0  0  0
  4  7  1  0  0  0  0
  5 10  1  0  0  0  0
  5  4  2  0  0  0  0
  6  5  1  0  0  0  0
  7  8  1  0  0  0  0
  7 11  2  0  0  0  0
  8 26  1  0  0  0  0
  9 12  1  0  0  0  0
  9  8  2  0  0  0  0
 10  9  1  0  0  0  0
 12 17  1  0  0  0  0
 13 14  1  0  0  0  0
 13 12  2  0  0  0  0
 14 15  2  0  0  0  0
 15 18  1  0  0  0  0
 15 16  1  0  0  0  0
 16 20  1  0  0  0  0
 17 16  2  0  0  0  0
 19 18  1  0  0  0  0
 20 21  1  0  0  0  0
 22  1  1  0  0  0  0
 23 22  1  0  0  0  0
 25 24  1  0  0  0  0
 26 27  1  0  0  0  0
M  END
>  <minimizedAffinity>
-4.69612269e-06

$$$$

 OpenBabel10122400283D

 27 29  0  0  0  0  0  0  0  0999 V2000
  -18.3000   17.1140   14.2840 C   0  0  0  0  0  0  0  0  0  0  0  0
  -17.5400   16.2040   15.1730 C   0  0  0  0  0  3  0  0  0  0  0  0
  -16.4670   15.4210   14.6550 C   0  0  0  0  0  0  0  0  0  0  0  0
  -16.1230   15.5310   13.2150 C   0  0  0  0  0  0  0  0  0  0  0  0
  -16.8330   16.3850   12.3710 C   0  0  0  0  0  0  0  0  0  0  0  0
  -17.9490   17.1990   12.9080 C   0  0  0  0  0  3  0  0  0  0  0  0
  -15.0040   14.7440   12.5840 C   0  0  0  0  0  0  0  0  0  0  0  0
  -14.7450   14.9420   11.1460 C   0  0  0  0  0  0  0  0  0  0  0  0
  -15.5130   15.7860   10.4400 C   0  0  0  0  0  0  0  0  0  0  0  0
  -16.5080   16.4850   11.0150 O   0  0  0  0  0  0  0  0  0  0  0  0
  -14.3180   13.9610   13.2220 O   0  0  0  0  0  0  0  0  0  0  0  0
  -15.3040   16.0180    8.9570 C   0  0  0  0  0  0  0  0  0  0  0  0
  -14.4320   17.1470    8.5470 C   0  0  0  0  0  3  0  0  0  0  0  0
  -14.1960   17.4120    7.1850 C   0  0  0  0  0  3  0  0  0  0  0  0
  -14.8140   16.5650    6.1400 C   0  0  0  0  0  0  0  0  0  0  0  0
  -15.6580   15.4830    6.5150 C   0  0  0  0  0  0  0  0  0  0  0  0
  -15.9150   15.2130    7.9520 C   0  0  0  0  0  3  0  0  0  0  0  0
  -14.5590   16.8400    4.7950 O   0  0  0  0  0  0  0  0  0  0  0  0
  -14.0010   17.5560    4.5610 H   0  0  0  0  0  0  0  0  0  0  0  0
  -16.2330   14.6920    5.5150 O   0  0  0  0  0  0  0  0  0  0  0  0
  -16.0600   14.8770    4.6130 H   0  0  0  0  0  0  0  0  0  0  0  0
  -19.3470   17.8690   14.8170 O   0  0  0  0  0  0  0  0  0  0  0  0
  -19.5600   17.7970   15.7270 H   0  0  0  0  0  0  0  0  0  0  0  0
  -15.7390   14.5570   15.4760 O   0  0  0  0  0  0  0  0  0  0  0  0
  -15.9530   14.4850   16.3850 H   0  0  0  0  0  0  0  0  0  0  0  0
  -13.7370   14.2900   10.5500 O   0  0  0  0  0  0  0  0  0  0  0  0
  -13.2020   13.7000   11.0440 H   0  0  0  0  0  0  0  0  0  0  0  0
  1 22  1  0  0  0  0
  1  2  1  0  0  0  0
  3  2  2  0  0  0  0
  3 24  1  0  0  0  0
  4  3  1  0  0  0  0
  5  6  1  0  0  0  0
  5  4  2  0  0  0  0
  6  1  2  0  0  0  0
  7  4  1  0  0  0  0
  7 11  2  0  0  0  0
  8  7  1  0  0  0  0
  9 10  1  0  0  0  0
  9  8  2  0  0  0  0
 10  5  1  0  0  0  0
 12  9  1  0  0  0  0
 13 12  1  0  0  0  0
 14 13  2  0  0  0  0
 15 16  2  0  0  0  0
 15 14  1  0  0  0  0
 16 17  1  0  0  0  0
 17 12  2  0  0  0  0
 18 15  1  0  0  0  0
 19 18  1  0  0  0  0
 20 16  1  0  0  0  0
 21 20  1  0  0  0  0
 22 23  1  0  0  0  0
 24 25  1  0  0  0  0
 26 27  1  0  0  0  0
 26  8  1  0  0  0  0
M  END
>  <minimizedAffinity>
-4.69612269e-06

$$$$

 OpenBabel10122400283D

 27 29  0  0  0  0  0  0  0  0999 V2000
  -56.7230   28.9540   18.4350 C   0  0  0  0  0  0  0  0  0  0  0  0
  -55.3090   29.2590   18.7550 C   0  0  0  0  0  3  0  0  0  0  0  0
  -54.7400   30.5110   18.3790 C   0  0  0  0  0  0  0  0  0  0  0  0
  -55.5830   31.5020   17.6660 C   0  0  0  0  0  0  0  0  0  0  0  0
  -56.9160   31.2230   17.3610 C   0  0  0  0  0  0  0  0  0  0  0  0
  -57.5080   29.9230   17.7500 C   0  0  0  0  0  3  0  0  0  0  0  0
  -55.0650   32.8500   17.2340 C   0  0  0  0  0  0  0  0  0  0  0  0
  -55.9970   33.7590   16.5410 C   0  0  0  0  0  0  0  0  0  0  0  0
  -57.2550   33.3630   16.2950 C   0  0  0  0  0  0  0  0  0  0  0  0
  -57.7060   32.1590   16.6870 O   0  0  0  0  0  0  0  0  0  0  0  0
  -53.9150   33.2020   17.4410 O   0  0  0  0  0  0  0  0  0  0  0  0
  -58.2520   34.2480   15.5740 C   0  0  0  0  0  0  0  0  0  0  0  0
  -59.1390   35.1090   16.3950 C   0  0  0  0  0  3  0  0  0  0  0  0
  -60.0820   35.9550   15.7840 C   0  0  0  0  0  3  0  0  0  0  0  0
  -60.2040   36.0000   14.3100 C   0  0  0  0  0  0  0  0  0  0  0  0
  -59.3670   35.1760   13.5070 C   0  0  0  0  0  0  0  0  0  0  0  0
  -58.3800   34.2750   14.1540 C   0  0  0  0  0  3  0  0  0  0  0  0
  -61.1410   36.8540   13.7240 O   0  0  0  0  0  0  0  0  0  0  0  0
  -61.6860   37.3910   14.2640 H   0  0  0  0  0  0  0  0  0  0  0  0
  -59.4930   35.2310   12.1150 O   0  0  0  0  0  0  0  0  0  0  0  0
  -60.1210   35.8050   11.7230 H   0  0  0  0  0  0  0  0  0  0  0  0
  -57.2560   27.7200   18.8140 O   0  0  0  0  0  0  0  0  0  0  0  0
  -56.7200   27.0970   19.2650 H   0  0  0  0  0  0  0  0  0  0  0  0
  -53.4080   30.8180   18.6710 O   0  0  0  0  0  0  0  0  0  0  0  0
  -52.8730   30.1950   19.1210 H   0  0  0  0  0  0  0  0  0  0  0  0
  -55.5900   34.9820   16.1710 O   0  0  0  0  0  0  0  0  0  0  0  0
  -54.7110   35.2560   16.3430 H   0  0  0  0  0  0  0  0  0  0  0  0
  1  2  1  0  0  0  0
  1 22  1  0  0  0  0
  3 24  1  0  0  0  0
  3  2  2  0  0  0  0
  4  3  1  0  0  0  0
  5  4  2  0  0  0  0
  5  6  1  0  0  0  0
  6  1  2  0  0  0  0
  7 11  2  0  0  0  0
  7  4  1  0  0  0  0
  8  7  1  0  0  0  0
  9  8  2  0  0  0  0
  9 10  1  0  0  0  0
 10  5  1  0  0  0  0
 12  9  1  0  0  0  0
 12 13  1  0  0  0  0
 14 13  2  0  0  0  0
 15 14  1  0  0  0  0
 16 17  1  0  0  0  0
 16 15  2  0  0  0  0
 17 12  2  0  0  0  0
 18 19  1  0  0  0  0
 18 15  1  0  0  0  0
 20 16  1  0  0  0  0
 21 20  1  0  0  0  0
 22 23  1  0  0  0  0
 24 25  1  0  0  0  0
 26 27  1  0  0  0  0
 26  8  1  0  0  0  0
M  END
>  <minimizedAffinity>
0

$$$$

 OpenBabel10122400283D

 27 29  0  0  0  0  0  0  0  0999 V2000
  -36.7700   42.8610   14.4440 C   0  0  0  0  0  0  0  0  0  0  0  0
  -37.8900   42.0070   14.9050 C   0  0  0  0  0  3  0  0  0  0  0  0
  -39.2220   42.5130   14.9230 C   0  0  0  0  0  0  0  0  0  0  0  0
  -39.4710   43.9060   14.4740 C   0  0  0  0  0  0  0  0  0  0  0  0
  -38.4230   44.7180   14.0390 C   0  0  0  0  0  0  0  0  0  0  0  0
  -37.0380   44.1930   14.0210 C   0  0  0  0  0  3  0  0  0  0  0  0
  -40.8460   44.5210   14.4590 C   0  0  0  0  0  0  0  0  0  0  0  0
  -40.9750   45.9110   13.9830 C   0  0  0  0  0  0  0  0  0  0  0  0
  -39.8830   46.5910   13.6030 C   0  0  0  0  0  0  0  0  0  0  0  0
  -38.6610   46.0290   13.6190 O   0  0  0  0  0  0  0  0  0  0  0  0
  -41.8380   43.9100   14.8220 O   0  0  0  0  0  0  0  0  0  0  0  0
  -39.9520   48.0250   13.1190 C   0  0  0  0  0  0  0  0  0  0  0  0
  -40.0820   48.2610   11.6590 C   0  0  0  0  0  3  0  0  0  0  0  0
  -40.1550   49.5700   11.1490 C   0  0  0  0  0  3  0  0  0  0  0  0
  -40.1060   50.7340   12.0620 C   0  0  0  0  0  0  0  0  0  0  0  0
  -39.9750   50.5270   13.4640 C   0  0  0  0  0  0  0  0  0  0  0  0
  -39.8860   49.1450   13.9990 C   0  0  0  0  0  3  0  0  0  0  0  0
  -40.1900   52.0240   11.5350 O   0  0  0  0  0  0  0  0  0  0  0  0
  -40.2760   52.1470   10.6090 H   0  0  0  0  0  0  0  0  0  0  0  0
  -39.9310   51.6370   14.3130 O   0  0  0  0  0  0  0  0  0  0  0  0
  -39.9890   52.5020   13.9580 H   0  0  0  0  0  0  0  0  0  0  0  0
  -35.4740   42.3400   14.4370 O   0  0  0  0  0  0  0  0  0  0  0  0
  -35.3220   41.4600   14.7200 H   0  0  0  0  0  0  0  0  0  0  0  0
  -40.2910   41.7240   15.3540 O   0  0  0  0  0  0  0  0  0  0  0  0
  -40.1380   40.8440   15.6380 H   0  0  0  0  0  0  0  0  0  0  0  0
  -42.1840   46.4880   13.9160 O   0  0  0  0  0  0  0  0  0  0  0  0
  -42.9460   46.0120   14.1830 H   0  0  0  0  0  0  0  0  0  0  0  0
  1  2  1  0  0  0  0
  2  3  2  0  0  0  0
  3 24  1  0  0  0  0
  4  3  1  0  0  0  0
  5  4  2  0  0  0  0
  6  5  1  0  0  0  0
  6  1  2  0  0  0  0
  7  4  1  0  0  0  0
  7 11  2  0  0  0  0
  8  7  1  0  0  0  0
  9 10  1  0  0  0  0
  9  8  2  0  0  0  0
 10  5  1  0  0  0  0
 12  9  1  0  0  0  0
 12 17  1  0  0  0  0
 13 12  2  0  0  0  0
 14 13  1  0  0  0  0
 14 15  2  0  0  0  0
 15 16  1  0  0  0  0
 16 17  2  0  0  0  0
 16 20  1  0  0  0  0
 18 15  1  0  0  0  0
 19 18  1  0  0  0  0
 21 20  1  0  0  0  0
 22  1  1  0  0  0  0
 22 23  1  0  0  0  0
 24 25  1  0  0  0  0
 26  8  1  0  0  0  0
 26 27  1  0  0  0  0
M  END
>  <minimizedAffinity>
0

$$$$

 OpenBabel10122400283D

 27 29  0  0  0  0  0  0  0  0999 V2000
  -44.4250   17.9090   -5.4440 C   0  0  0  0  0  0  0  0  0  0  0  0
  -43.6880   18.2360   -6.6860 C   0  0  0  0  0  3  0  0  0  0  0  0
  -43.1170   19.5300   -6.8660 C   0  0  0  0  0  0  0  0  0  0  0  0
  -43.2720   20.5430   -5.7930 C   0  0  0  0  0  0  0  0  0  0  0  0
  -43.9660   20.2440   -4.6190 C   0  0  0  0  0  0  0  0  0  0  0  0
  -44.5600   18.9000   -4.4320 C   0  0  0  0  0  3  0  0  0  0  0  0
  -42.7010   21.9330   -5.8970 C   0  0  0  0  0  0  0  0  0  0  0  0
  -42.9090   22.8530   -4.7640 C   0  0  0  0  0  0  0  0  0  0  0  0
  -43.6090   22.4450   -3.6940 C   0  0  0  0  0  0  0  0  0  0  0  0
  -44.1120   21.2010   -3.6110 O   0  0  0  0  0  0  0  0  0  0  0  0
  -42.0810   22.3100   -6.8780 O   0  0  0  0  0  0  0  0  0  0  0  0
  -43.8670   23.3510   -2.5060 C   0  0  0  0  0  0  0  0  0  0  0  0
  -42.9160   23.2940   -1.3690 C   0  0  0  0  0  3  0  0  0  0  0  0
  -43.0990   24.1120   -0.2390 C   0  0  0  0  0  3  0  0  0  0  0  0
  -44.2460   25.0450   -0.1690 C   0  0  0  0  0  0  0  0  0  0  0  0
  -45.1730   25.1080   -1.2470 C   0  0  0  0  0  0  0  0  0  0  0  0
  -44.9830   24.2350   -2.4330 C   0  0  0  0  0  3  0  0  0  0  0  0
  -44.4040   25.8550    0.9580 O   0  0  0  0  0  0  0  0  0  0  0  0
  -43.7860   25.8040    1.6610 H   0  0  0  0  0  0  0  0  0  0  0  0
  -46.2510   25.9950   -1.1660 O   0  0  0  0  0  0  0  0  0  0  0  0
  -46.3540   26.5390   -0.4100 H   0  0  0  0  0  0  0  0  0  0  0  0
  -44.9740   16.6340   -5.2930 O   0  0  0  0  0  0  0  0  0  0  0  0
  -44.8730   15.9970   -5.9740 H   0  0  0  0  0  0  0  0  0  0  0  0
  -42.4180   19.8580   -8.0310 O   0  0  0  0  0  0  0  0  0  0  0  0
  -42.3180   19.2210   -8.7110 H   0  0  0  0  0  0  0  0  0  0  0  0
  -42.3870   24.0870   -4.7960 O   0  0  0  0  0  0  0  0  0  0  0  0
  -41.8990   24.3710   -5.5450 H   0  0  0  0  0  0  0  0  0  0  0  0
  1 22  1  0  0  0  0
  1  6  1  0  0  0  0
  2  1  2  0  0  0  0
  3  2  1  0  0  0  0
  3  4  2  0  0  0  0
  4  5  1  0  0  0  0
  5  6  2  0  0  0  0
  5 10  1  0  0  0  0
  7  4  1  0  0  0  0
  7  8  1  0  0  0  0
  8  9  2  0  0  0  0
  9 10  1  0  0  0  0
  9 12  1  0  0  0  0
 11  7  2  0  0  0  0
 12 17  2  0  0  0  0
 12 13  1  0  0  0  0
 13 14  2  0  0  0  0
 14 15  1  0  0  0  0
 15 18  1  0  0  0  0
 16 20  1  0  0  0  0
 16 15  2  0  0  0  0
 17 16  1  0  0  0  0
 18 19  1  0  0  0  0
 20 21  1  0  0  0  0
 23 22  1  0  0  0  0
 24  3  1  0  0  0  0
 25 24  1  0  0  0  0
 26  8  1  0  0  0  0
 27 26  1  0  0  0  0
M  END
>  <minimizedAffinity>
0

$$$$

 OpenBabel10122400283D

 27 29  0  0  0  0  0  0  0  0999 V2000
  -32.7790   43.6100   -0.6190 C   0  0  0  0  0  0  0  0  0  0  0  0
  -31.5260   44.0730    0.0220 C   0  0  0  0  0  3  0  0  0  0  0  0
  -30.6830   45.0130   -0.6400 C   0  0  0  0  0  0  0  0  0  0  0  0
  -31.0790   45.5190   -1.9780 C   0  0  0  0  0  0  0  0  0  0  0  0
  -32.2560   45.0870   -2.5890 C   0  0  0  0  0  0  0  0  0  0  0  0
  -33.1330   44.1100   -1.9020 C   0  0  0  0  0  3  0  0  0  0  0  0
  -30.2500   46.5140   -2.7490 C   0  0  0  0  0  0  0  0  0  0  0  0
  -30.7460   46.9540   -4.0650 C   0  0  0  0  0  0  0  0  0  0  0  0
  -31.8920   46.4510   -4.5490 C   0  0  0  0  0  0  0  0  0  0  0  0
  -32.6250   45.5640   -3.8500 O   0  0  0  0  0  0  0  0  0  0  0  0
  -29.1980   46.9580   -2.3180 O   0  0  0  0  0  0  0  0  0  0  0  0
  -32.4440   46.8540   -5.9010 C   0  0  0  0  0  0  0  0  0  0  0  0
  -33.4160   47.9740   -5.9500 C   0  0  0  0  0  3  0  0  0  0  0  0
  -33.9610   48.3980   -7.1750 C   0  0  0  0  0  3  0  0  0  0  0  0
  -33.5700   47.7320   -8.4390 C   0  0  0  0  0  0  0  0  0  0  0  0
  -32.6450   46.6520   -8.4110 C   0  0  0  0  0  0  0  0  0  0  0  0
  -32.0800   46.1990   -7.1140 C   0  0  0  0  0  3  0  0  0  0  0  0
  -34.1160   48.1750   -9.6450 O   0  0  0  0  0  0  0  0  0  0  0  0
  -34.7250   48.8880   -9.6500 H   0  0  0  0  0  0  0  0  0  0  0  0
  -32.2850   46.0340   -9.6120 O   0  0  0  0  0  0  0  0  0  0  0  0
  -32.6510   46.3340  -10.4210 H   0  0  0  0  0  0  0  0  0  0  0  0
  -33.5860   42.6880    0.0520 O   0  0  0  0  0  0  0  0  0  0  0  0
  -33.3330   42.3720    0.8980 H   0  0  0  0  0  0  0  0  0  0  0  0
  -29.4980   45.4630   -0.0530 O   0  0  0  0  0  0  0  0  0  0  0  0
  -29.2450   45.1460    0.7920 H   0  0  0  0  0  0  0  0  0  0  0  0
  -30.0610   47.8660   -4.7700 O   0  0  0  0  0  0  0  0  0  0  0  0
  -29.2600   48.2160   -4.4320 H   0  0  0  0  0  0  0  0  0  0  0  0
  1  2  1  0  0  0  0
  1 22  1  0  0  0  0
  3 24  1  0  0  0  0
  3  2  2  0  0  0  0
  4  3  1  0  0  0  0
  5  4  2  0  0  0  0
  5  6  1  0  0  0  0
  6  1  2  0  0  0  0
  7 11  2  0  0  0  0
  7  4  1  0  0  0  0
  8  7  1  0  0  0  0
  9  8  2  0  0  0  0
  9 10  1  0  0  0  0
 10  5  1  0  0  0  0
 12  9  1  0  0  0  0
 13 12  1  0  0  0  0
 14 13  2  0  0  0  0
 15 16  2  0  0  0  0
 15 14  1  0  0  0  0
 16 17  1  0  0  0  0
 17 12  2  0  0  0  0
 18 15  1  0  0  0  0
 19 18  1  0  0  0  0
 20 16  1  0  0  0  0
 21 20  1  0  0  0  0
 22 23  1  0  0  0  0
 24 25  1  0  0  0  0
 26 27  1  0  0  0  0
 26  8  1  0  0  0  0
M  END
>  <minimizedAffinity>
0

$$$$

 OpenBabel10122400283D

 27 29  0  0  0  0  0  0  0  0999 V2000
  -31.5510   48.9710   11.4320 C   0  0  0  0  0  0  0  0  0  0  0  0
  -31.1810   47.7830   10.6270 C   0  0  0  0  0  3  0  0  0  0  0  0
  -29.8120   47.4990   10.3510 C   0  0  0  0  0  0  0  0  0  0  0  0
  -28.7650   48.4080   10.8800 C   0  0  0  0  0  0  0  0  0  0  0  0
  -29.1050   49.5290   11.6380 C   0  0  0  0  0  0  0  0  0  0  0  0
  -30.5270   49.8260   11.9260 C   0  0  0  0  0  3  0  0  0  0  0  0
  -27.2950   48.1830   10.6380 C   0  0  0  0  0  0  0  0  0  0  0  0
  -26.3430   49.1460   11.2210 C   0  0  0  0  0  0  0  0  0  0  0  0
  -26.8010   50.1950   11.9220 C   0  0  0  0  0  0  0  0  0  0  0  0
  -28.1160   50.3840   12.1330 O   0  0  0  0  0  0  0  0  0  0  0  0
  -26.8790   47.2400    9.9840 O   0  0  0  0  0  0  0  0  0  0  0  0
  -25.8720   51.2250   12.5320 C   0  0  0  0  0  0  0  0  0  0  0  0
  -25.4420   51.0270   13.9390 C   0  0  0  0  0  3  0  0  0  0  0  0
  -24.5770   51.9460   14.5600 C   0  0  0  0  0  3  0  0  0  0  0  0
  -24.0810   53.1270   13.8180 C   0  0  0  0  0  0  0  0  0  0  0  0
  -24.4880   53.3360   12.4710 C   0  0  0  0  0  0  0  0  0  0  0  0
  -25.4090   52.3710   11.8210 C   0  0  0  0  0  3  0  0  0  0  0  0
  -23.2160   54.0210   14.4510 O   0  0  0  0  0  0  0  0  0  0  0  0
  -22.9550   53.8720   15.3390 H   0  0  0  0  0  0  0  0  0  0  0  0
  -24.0090   54.4550   11.7820 O   0  0  0  0  0  0  0  0  0  0  0  0
  -23.4270   55.0540   12.2080 H   0  0  0  0  0  0  0  0  0  0  0  0
  -32.9000   49.2270   11.6880 O   0  0  0  0  0  0  0  0  0  0  0  0
  -33.5590   48.6500   11.3530 H   0  0  0  0  0  0  0  0  0  0  0  0
  -29.4430   46.3840    9.5940 O   0  0  0  0  0  0  0  0  0  0  0  0
  -30.1010   45.8080    9.2580 H   0  0  0  0  0  0  0  0  0  0  0  0
  -25.0240   48.9660   11.0630 O   0  0  0  0  0  0  0  0  0  0  0  0
  -24.7060   48.2330   10.5730 H   0  0  0  0  0  0  0  0  0  0  0  0
  1 22  1  0  0  0  0
  1  6  1  0  0  0  0
  2  1  2  0  0  0  0
  3  2  1  0  0  0  0
  3  4  2  0  0  0  0
  4  5  1  0  0  0  0
  5  6  2  0  0  0  0
  5 10  1  0  0  0  0
  7  4  1  0  0  0  0
  7  8  1  0  0  0  0
  8  9  2  0  0  0  0
  9 10  1  0  0  0  0
  9 12  1  0  0  0  0
 11  7  2  0  0  0  0
 12 13  1  0  0  0  0
 13 14  2  0  0  0  0
 15 18  1  0  0  0  0
 15 14  1  0  0  0  0
 16 15  2  0  0  0  0
 17 16  1  0  0  0  0
 17 12  2  0  0  0  0
 18 19  1  0  0  0  0
 20 21  1  0  0  0  0
 20 16  1  0  0  0  0
 23 22  1  0  0  0  0
 24  3  1  0  0  0  0
 25 24  1  0  0  0  0
 26  8  1  0  0  0  0
 27 26  1  0  0  0  0
M  END
>  <minimizedAffinity>
0.000373881892

$$$$

 OpenBabel10122400283D

 27 29  0  0  0  0  0  0  0  0999 V2000
  -27.1290   50.7500    1.3620 C   0  0  0  0  0  0  0  0  0  0  0  0
  -27.2800   50.1740    0.0060 C   0  0  0  0  0  3  0  0  0  0  0  0
  -28.0200   50.8700   -0.9940 C   0  0  0  0  0  0  0  0  0  0  0  0
  -28.6350   52.1780   -0.6570 C   0  0  0  0  0  0  0  0  0  0  0  0
  -28.4990   52.7280    0.6180 C   0  0  0  0  0  0  0  0  0  0  0  0
  -27.7310   52.0050    1.6580 C   0  0  0  0  0  3  0  0  0  0  0  0
  -29.4320   52.9820   -1.6520 C   0  0  0  0  0  0  0  0  0  0  0  0
  -29.9880   54.2730   -1.2080 C   0  0  0  0  0  0  0  0  0  0  0  0
  -29.7960   54.6850    0.0540 C   0  0  0  0  0  0  0  0  0  0  0  0
  -29.0810   53.9590    0.9320 O   0  0  0  0  0  0  0  0  0  0  0  0
  -29.6230   52.5990   -2.7950 O   0  0  0  0  0  0  0  0  0  0  0  0
  -30.3570   55.9940    0.5700 C   0  0  0  0  0  0  0  0  0  0  0  0
  -29.4890   57.1970    0.5030 C   0  0  0  0  0  3  0  0  0  0  0  0
  -29.9530   58.4420    0.9620 C   0  0  0  0  0  3  0  0  0  0  0  0
  -31.3180   58.5730    1.5210 C   0  0  0  0  0  0  0  0  0  0  0  0
  -32.1610   57.4300    1.6000 C   0  0  0  0  0  0  0  0  0  0  0  0
  -31.6650   56.1140    1.1240 C   0  0  0  0  0  3  0  0  0  0  0  0
  -31.7620   59.8210    1.9630 O   0  0  0  0  0  0  0  0  0  0  0  0
  -31.1970   60.5670    1.9050 H   0  0  0  0  0  0  0  0  0  0  0  0
  -33.4490   57.5700    2.1280 O   0  0  0  0  0  0  0  0  0  0  0  0
  -33.7450   58.4090    2.4230 H   0  0  0  0  0  0  0  0  0  0  0  0
  -26.3990   50.0470    2.3230 O   0  0  0  0  0  0  0  0  0  0  0  0
  -26.0110   49.2220    2.1060 H   0  0  0  0  0  0  0  0  0  0  0  0
  -28.1730   50.3440   -2.2800 O   0  0  0  0  0  0  0  0  0  0  0  0
  -27.7870   49.5180   -2.4960 H   0  0  0  0  0  0  0  0  0  0  0  0
  -30.6720   55.0400   -2.0700 O   0  0  0  0  0  0  0  0  0  0  0  0
  -30.8070   54.7510   -2.9510 H   0  0  0  0  0  0  0  0  0  0  0  0
  1  6  1  0  0  0  0
  1 22  1  0  0  0  0
  2  1  2  0  0  0  0
  3  4  2  0  0  0  0
  3  2  1  0  0  0  0
  4  5  1  0  0  0  0
  5 10  1  0  0  0  0
  5  6  2  0  0  0  0
  7  8  1  0  0  0  0
  7  4  1  0  0  0  0
  8  9  2  0  0  0  0
  9 12  1  0  0  0  0
  9 10  1  0  0  0  0
 11  7  2  0  0  0  0
 12 17  1  0  0  0  0
 13 12  2  0  0  0  0
 13 14  1  0  0  0  0
 14 15  2  0  0  0  0
 15 16  1  0  0  0  0
 15 18  1  0  0  0  0
 16 20  1  0  0  0  0
 17 16  2  0  0  0  0
 19 18  1  0  0  0  0
 20 21  1  0  0  0  0
 23 22  1  0  0  0  0
 24  3  1  0  0  0  0
 25 24  1  0  0  0  0
 26  8  1  0  0  0  0
 27 26  1  0  0  0  0
M  END
>  <minimizedAffinity>
0.000694294693

$$$$

 OpenBabel10122400283D

 27 29  0  0  0  0  0  0  0  0999 V2000
  -63.5090   44.0560   10.6540 C   0  0  0  0  0  0  0  0  0  0  0  0
  -64.4710   44.9830   11.2940 C   0  0  0  0  0  3  0  0  0  0  0  0
  -64.3320   45.3260   12.6710 C   0  0  0  0  0  0  0  0  0  0  0  0
  -63.2130   44.7420   13.4510 C   0  0  0  0  0  0  0  0  0  0  0  0
  -62.3040   43.8670   12.8560 C   0  0  0  0  0  0  0  0  0  0  0  0
  -62.4470   43.5090   11.4260 C   0  0  0  0  0  3  0  0  0  0  0  0
  -62.9900   45.0500   14.9090 C   0  0  0  0  0  0  0  0  0  0  0  0
  -61.8390   44.4190   15.5810 C   0  0  0  0  0  0  0  0  0  0  0  0
  -61.0440   43.5820   14.8970 C   0  0  0  0  0  0  0  0  0  0  0  0
  -61.2520   43.3170   13.5950 O   0  0  0  0  0  0  0  0  0  0  0  0
  -63.7240   45.7970   15.5370 O   0  0  0  0  0  0  0  0  0  0  0  0
  -59.8560   42.8940   15.5370 C   0  0  0  0  0  0  0  0  0  0  0  0
  -58.5300   43.5520   15.4300 C   0  0  0  0  0  3  0  0  0  0  0  0
  -57.3900   42.9650   16.0080 C   0  0  0  0  0  3  0  0  0  0  0  0
  -57.4960   41.6780   16.7330 C   0  0  0  0  0  0  0  0  0  0  0  0
  -58.7580   41.0300   16.8390 C   0  0  0  0  0  0  0  0  0  0  0  0
  -59.9580   41.6460   16.2200 C   0  0  0  0  0  3  0  0  0  0  0  0
  -56.3530   41.1180   17.3060 O   0  0  0  0  0  0  0  0  0  0  0  0
  -55.5270   41.5550   17.2290 H   0  0  0  0  0  0  0  0  0  0  0  0
  -58.8420   39.8160   17.5290 O   0  0  0  0  0  0  0  0  0  0  0  0
  -58.0740   39.4420   17.9140 H   0  0  0  0  0  0  0  0  0  0  0  0
  -63.6680   43.7360    9.3030 O   0  0  0  0  0  0  0  0  0  0  0  0
  -64.3760   44.1080    8.8140 H   0  0  0  0  0  0  0  0  0  0  0  0
  -65.2280   46.1990   13.2930 O   0  0  0  0  0  0  0  0  0  0  0  0
  -65.9360   46.5700   12.8040 H   0  0  0  0  0  0  0  0  0  0  0  0
  -61.5800   44.6940   16.8670 O   0  0  0  0  0  0  0  0  0  0  0  0
  -62.1370   45.2780   17.3440 H   0  0  0  0  0  0  0  0  0  0  0  0
  1  2  2  0  0  0  0
  1  6  1  0  0  0  0
  2  3  1  0  0  0  0
  3 24  1  0  0  0  0
  3  4  2  0  0  0  0
  4  7  1  0  0  0  0
  5  4  1  0  0  0  0
  5 10  1  0  0  0  0
  6  5  2  0  0  0  0
  7 11  2  0  0  0  0
  7  8  1  0  0  0  0
  8 26  1  0  0  0  0
  9 12  1  0  0  0  0
  9  8  2  0  0  0  0
 10  9  1  0  0  0  0
 12 17  1  0  0  0  0
 13 12  2  0  0  0  0
 13 14  1  0  0  0  0
 14 15  2  0  0  0  0
 15 16  1  0  0  0  0
 15 18  1  0  0  0  0
 16 20  1  0  0  0  0
 17 16  2  0  0  0  0
 19 18  1  0  0  0  0
 20 21  1  0  0  0  0
 22  1  1  0  0  0  0
 23 22  1  0  0  0  0
 25 24  1  0  0  0  0
 26 27  1  0  0  0  0
M  END
>  <minimizedAffinity>
0.000694294693

$$$$
