REMARK  Name = MOL000098
REMARK  6 active torsions:
REMARK  status: ('A' for Active; 'I' for Inactive)
REMARK    1  A    between atoms: C_1  and  O_17
REMARK    2  A    between atoms: C_3  and  O_18
REMARK    3  A    between atoms: C_8  and  O_20
REMARK    4  A    between atoms: C_9  and  C_11
REMARK    5  A    between atoms: C_14  and  O_19
REMARK    6  A    between atoms: C_15  and  O_21
REMARK                            x       y       z     vdW  Elec       q    Type
REMARK                         _______ _______ _______ _____ _____    ______ ____
ROOT
ATOM      1  C   UNL     1      -4.390   1.047   0.006  0.00  0.00    +0.078 A 
ATOM      2  C   UNL     1      -4.321   1.694   1.337  0.00  0.00    -0.001 A 
ATOM      3  C   UNL     1      -3.082   1.769   2.038  0.00  0.00    +0.088 A 
ATOM      4  C   UNL     1      -1.865   1.191   1.416  0.00  0.00    +0.085 A 
ATOM      5  C   UNL     1      -1.921   0.579   0.163  0.00  0.00    +0.099 A 
ATOM      6  C   UNL     1      -3.208   0.500  -0.566  0.00  0.00    -0.001 A 
ATOM      7  C   UNL     1      -0.515   1.227   2.084  0.00  0.00    +0.223 C 
ATOM      8  C   UNL     1       0.627   0.630   1.367  0.00  0.00    +0.152 C 
ATOM      9  C   UNL     1       0.437   0.058   0.168  0.00  0.00    +0.124 C 
ATOM     10  O   UNL     1      -0.773   0.034  -0.419  0.00  0.00    -0.305 OA
ATOM     11  O   UNL     1      -0.345   1.730   3.183  0.00  0.00    -0.284 OA
ENDROOT
BRANCH   9  12
ATOM     12  C   UNL     1       1.569  -0.584  -0.608  0.00  0.00    +0.011 A 
ATOM     13  C   UNL     1       1.556  -0.460  -2.087  0.00  0.00    -0.049 A 
ATOM     14  C   UNL     1       2.581  -1.031  -2.863  0.00  0.00    -0.029 A 
ATOM     15  C   UNL     1       3.691  -1.765  -2.214  0.00  0.00    +0.102 A 
ATOM     16  C   UNL     1       3.716  -1.900  -0.798  0.00  0.00    +0.103 A 
ATOM     17  C   UNL     1       2.627  -1.306   0.018  0.00  0.00    -0.020 A 
BRANCH  15  18
ATOM     18  O   UNL     1       4.703  -2.316  -3.003  0.00  0.00    -0.357 OA
ATOM     19  H   UNL     1       4.675  -2.220  -3.935  0.00  0.00    +0.000 HD
ENDBRANCH  15  18
BRANCH  16  20
ATOM     20  O   UNL     1       4.772  -2.595  -0.200  0.00  0.00    -0.357 OA
ATOM     21  H   UNL     1       5.451  -2.963  -0.731  0.00  0.00    +0.000 HD
ENDBRANCH  16  20
ENDBRANCH   9  12
BRANCH   1  22
ATOM     22  O   UNL     1      -5.617   0.987  -0.659  0.00  0.00    -0.360 OA
ATOM     23  H   UNL     1      -6.383   1.354  -0.263  0.00  0.00    +0.000 HD
ENDBRANCH   1  22
BRANCH   3  24
ATOM     24  O   UNL     1      -2.996   2.375   3.294  0.00  0.00    -0.359 OA
ATOM     25  H   UNL     1      -3.762   2.741   3.690  0.00  0.00    +0.000 HD
ENDBRANCH   3  24
BRANCH   8  26
ATOM     26  O   UNL     1       1.854   0.672   1.906  0.00  0.00    -0.354 OA
ATOM     27  H   UNL     1       1.985   1.071   2.744  0.00  0.00    +0.000 HD
ENDBRANCH   8  26
TORSDOF 6
