
 OpenBabel10112400233D

 27 29  0  0  0  0  0  0  0  0999 V2000
    1.8000  -40.0620   46.0620 C   0  0  0  0  0  0  0  0  0  0  0  0
    0.9690  -39.9430   47.2830 C   0  0  0  0  0  3  0  0  0  0  0  0
   -0.2340  -40.6950   47.4110 C   0  0  0  0  0  0  0  0  0  0  0  0
   -0.6420  -41.5980   46.3070 C   0  0  0  0  0  0  0  0  0  0  0  0
    0.1340  -41.7160   45.1530 C   0  0  0  0  0  0  0  0  0  0  0  0
    1.3840  -40.9340   45.0180 C   0  0  0  0  0  3  0  0  0  0  0  0
   -1.8960  -42.4310   46.3580 C   0  0  0  0  0  0  0  0  0  0  0  0
   -2.1960  -43.3010   45.2060 C   0  0  0  0  0  0  0  0  0  0  0  0
   -1.3730  -43.3140   44.1470 C   0  0  0  0  0  0  0  0  0  0  0  0
   -0.2540  -42.5670   44.1130 O   0  0  0  0  0  0  0  0  0  0  0  0
   -2.6560  -42.4060   47.3130 O   0  0  0  0  0  0  0  0  0  0  0  0
   -1.6370  -44.1750   42.9290 C   0  0  0  0  0  0  0  0  0  0  0  0
   -1.1230  -45.5670   42.9370 C   0  0  0  0  0  3  0  0  0  0  0  0
   -1.3390  -46.4180   41.8380 C   0  0  0  0  0  3  0  0  0  0  0  0
   -2.0860  -45.9360   40.6540 C   0  0  0  0  0  0  0  0  0  0  0  0
   -2.5810  -44.6020   40.6260 C   0  0  0  0  0  0  0  0  0  0  0  0
   -2.3410  -43.7030   41.7830 C   0  0  0  0  0  3  0  0  0  0  0  0
   -2.2980  -46.8000   39.5780 O   0  0  0  0  0  0  0  0  0  0  0  0
   -1.9670  -47.6770   39.6090 H   0  0  0  0  0  0  0  0  0  0  0  0
   -3.2860  -44.1630   39.5010 O   0  0  0  0  0  0  0  0  0  0  0  0
   -3.4280  -44.7440   38.7800 H   0  0  0  0  0  0  0  0  0  0  0  0
    2.9750  -39.3130   45.9610 O   0  0  0  0  0  0  0  0  0  0  0  0
    3.2290  -38.7440   46.6620 H   0  0  0  0  0  0  0  0  0  0  0  0
   -1.0310  -40.5970   48.5550 O   0  0  0  0  0  0  0  0  0  0  0  0
   -0.7770  -40.0280   49.2540 H   0  0  0  0  0  0  0  0  0  0  0  0
   -3.2820  -44.0880   45.2240 O   0  0  0  0  0  0  0  0  0  0  0  0
   -3.8570  -44.0780   45.9640 H   0  0  0  0  0  0  0  0  0  0  0  0
  1  2  1  0  0  0  0
  2  3  2  0  0  0  0
  3 24  1  0  0  0  0
  4  7  1  0  0  0  0
  4  3  1  0  0  0  0
  5  4  2  0  0  0  0
  6  5  1  0  0  0  0
  6  1  2  0  0  0  0
  7 11  2  0  0  0  0
  8 26  1  0  0  0  0
  8  7  1  0  0  0  0
  9  8  2  0  0  0  0
 10  9  1  0  0  0  0
 10  5  1  0  0  0  0
 12 13  1  0  0  0  0
 12  9  1  0  0  0  0
 14 13  2  0  0  0  0
 15 14  1  0  0  0  0
 16 15  2  0  0  0  0
 16 17  1  0  0  0  0
 17 12  2  0  0  0  0
 18 19  1  0  0  0  0
 18 15  1  0  0  0  0
 20 16  1  0  0  0  0
 21 20  1  0  0  0  0
 22  1  1  0  0  0  0
 22 23  1  0  0  0  0
 24 25  1  0  0  0  0
 26 27  1  0  0  0  0
M  END
>  <minimizedAffinity>
-9.64778042

$$$$

 OpenBabel10112400233D

 27 29  0  0  0  0  0  0  0  0999 V2000
   -1.4950  -47.0500   42.1990 C   0  0  0  0  0  0  0  0  0  0  0  0
   -2.9300  -46.7500   41.9840 C   0  0  0  0  0  3  0  0  0  0  0  0
   -3.4770  -45.5060   42.4120 C   0  0  0  0  0  0  0  0  0  0  0  0
   -2.5910  -44.5170   43.0740 C   0  0  0  0  0  0  0  0  0  0  0  0
   -1.2380  -44.7920   43.2820 C   0  0  0  0  0  0  0  0  0  0  0  0
   -0.6690  -46.0850   42.8380 C   0  0  0  0  0  3  0  0  0  0  0  0
   -3.0840  -43.1780   43.5570 C   0  0  0  0  0  0  0  0  0  0  0  0
   -2.1100  -42.2710   44.1920 C   0  0  0  0  0  0  0  0  0  0  0  0
   -0.8350  -42.6620   44.3450 C   0  0  0  0  0  0  0  0  0  0  0  0
   -0.4070  -43.8590   43.9080 O   0  0  0  0  0  0  0  0  0  0  0  0
   -4.2470  -42.8290   43.4360 O   0  0  0  0  0  0  0  0  0  0  0  0
    0.2060  -41.7790   45.0030 C   0  0  0  0  0  0  0  0  0  0  0  0
    1.0380  -40.9140   44.1290 C   0  0  0  0  0  3  0  0  0  0  0  0
    2.0180  -40.0700   44.6810 C   0  0  0  0  0  3  0  0  0  0  0  0
    2.2350  -40.0310   46.1450 C   0  0  0  0  0  0  0  0  0  0  0  0
    1.4520  -40.8580   46.9970 C   0  0  0  0  0  0  0  0  0  0  0  0
    0.4250  -41.7570   46.4120 C   0  0  0  0  0  3  0  0  0  0  0  0
    3.2070  -39.1780   46.6720 O   0  0  0  0  0  0  0  0  0  0  0  0
    3.7170  -38.6380   46.1000 H   0  0  0  0  0  0  0  0  0  0  0  0
    1.6680  -40.8080   48.3780 O   0  0  0  0  0  0  0  0  0  0  0  0
    2.3200  -40.2350   48.7300 H   0  0  0  0  0  0  0  0  0  0  0  0
   -0.9850  -48.2780   41.7690 O   0  0  0  0  0  0  0  0  0  0  0  0
   -1.5480  -48.8990   41.3510 H   0  0  0  0  0  0  0  0  0  0  0  0
   -4.8280  -45.2030   42.2180 O   0  0  0  0  0  0  0  0  0  0  0  0
   -5.3910  -45.8250   41.8010 H   0  0  0  0  0  0  0  0  0  0  0  0
   -2.4950  -41.0540   44.6030 O   0  0  0  0  0  0  0  0  0  0  0  0
   -3.3860  -40.7830   44.4970 H   0  0  0  0  0  0  0  0  0  0  0  0
  1  6  1  0  0  0  0
  2  1  2  0  0  0  0
  2  3  1  0  0  0  0
  3  4  2  0  0  0  0
  4  5  1  0  0  0  0
  4  7  1  0  0  0  0
  5 10  1  0  0  0  0
  6  5  2  0  0  0  0
  7  8  1  0  0  0  0
  8  9  2  0  0  0  0
  8 26  1  0  0  0  0
  9 12  1  0  0  0  0
 10  9  1  0  0  0  0
 11  7  2  0  0  0  0
 12 17  1  0  0  0  0
 13 14  1  0  0  0  0
 13 12  2  0  0  0  0
 14 15  2  0  0  0  0
 15 18  1  0  0  0  0
 15 16  1  0  0  0  0
 16 20  1  0  0  0  0
 17 16  2  0  0  0  0
 19 18  1  0  0  0  0
 20 21  1  0  0  0  0
 22  1  1  0  0  0  0
 23 22  1  0  0  0  0
 24  3  1  0  0  0  0
 25 24  1  0  0  0  0
 27 26  1  0  0  0  0
M  END
>  <minimizedAffinity>
-9.51265049

$$$$

 OpenBabel10112400233D

 27 29  0  0  0  0  0  0  0  0999 V2000
    0.1710  -35.4350   21.8750 C   0  0  0  0  0  0  0  0  0  0  0  0
   -1.1380  -35.1680   22.5160 C   0  0  0  0  0  3  0  0  0  0  0  0
   -1.8000  -36.1920   23.2550 C   0  0  0  0  0  0  0  0  0  0  0  0
   -1.1600  -37.5260   23.3720 C   0  0  0  0  0  0  0  0  0  0  0  0
    0.0720  -37.7860   22.7700 C   0  0  0  0  0  0  0  0  0  0  0  0
    0.7600  -36.7240   22.0020 C   0  0  0  0  0  3  0  0  0  0  0  0
   -1.7870  -38.6650   24.1340 C   0  0  0  0  0  0  0  0  0  0  0  0
   -1.0550  -39.9440   24.1920 C   0  0  0  0  0  0  0  0  0  0  0  0
    0.1200  -40.0690   23.5560 C   0  0  0  0  0  0  0  0  0  0  0  0
    0.6700  -39.0450   22.8810 O   0  0  0  0  0  0  0  0  0  0  0  0
   -2.8650  -38.5570   24.6960 O   0  0  0  0  0  0  0  0  0  0  0  0
    0.9090  -41.3630   23.5680 C   0  0  0  0  0  0  0  0  0  0  0  0
    0.7700  -42.2730   22.4040 C   0  0  0  0  0  3  0  0  0  0  0  0
    1.4790  -43.4860   22.3540 C   0  0  0  0  0  3  0  0  0  0  0  0
    2.3780  -43.8740   23.4640 C   0  0  0  0  0  0  0  0  0  0  0  0
    2.5180  -43.0180   24.5920 C   0  0  0  0  0  0  0  0  0  0  0  0
    1.7600  -41.7430   24.6470 C   0  0  0  0  0  3  0  0  0  0  0  0
    3.0800  -45.0790   23.3900 O   0  0  0  0  0  0  0  0  0  0  0  0
    2.9790  -45.6350   22.6420 H   0  0  0  0  0  0  0  0  0  0  0  0
    3.3720  -43.3980   25.6320 O   0  0  0  0  0  0  0  0  0  0  0  0
    3.8440  -44.2060   25.5800 H   0  0  0  0  0  0  0  0  0  0  0  0
    0.7980  -34.4140   21.1570 O   0  0  0  0  0  0  0  0  0  0  0  0
    0.3910  -33.5730   21.0860 H   0  0  0  0  0  0  0  0  0  0  0  0
   -3.0340  -35.9610   23.8680 O   0  0  0  0  0  0  0  0  0  0  0  0
   -3.4410  -35.1200   23.7960 H   0  0  0  0  0  0  0  0  0  0  0  0
   -1.5570  -40.9730   24.8890 O   0  0  0  0  0  0  0  0  0  0  0  0
   -2.3780  -40.8840   25.3320 H   0  0  0  0  0  0  0  0  0  0  0  0
  1  6  2  0  0  0  0
  1  2  1  0  0  0  0
  2  3  2  0  0  0  0
  3  4  1  0  0  0  0
  3 24  1  0  0  0  0
  4  7  1  0  0  0  0
  5 10  1  0  0  0  0
  5  4  2  0  0  0  0
  6  5  1  0  0  0  0
  7  8  1  0  0  0  0
  7 11  2  0  0  0  0
  8 26  1  0  0  0  0
  9 12  1  0  0  0  0
  9  8  2  0  0  0  0
 10  9  1  0  0  0  0
 12 17  1  0  0  0  0
 13 12  2  0  0  0  0
 14 13  1  0  0  0  0
 14 15  2  0  0  0  0
 15 16  1  0  0  0  0
 16 17  2  0  0  0  0
 16 20  1  0  0  0  0
 18 15  1  0  0  0  0
 19 18  1  0  0  0  0
 21 20  1  0  0  0  0
 22  1  1  0  0  0  0
 23 22  1  0  0  0  0
 25 24  1  0  0  0  0
 26 27  1  0  0  0  0
M  END
>  <minimizedAffinity>
-9.16418266

$$$$

 OpenBabel10112400233D

 27 29  0  0  0  0  0  0  0  0999 V2000
   11.2380  -41.5490   17.0140 C   0  0  0  0  0  0  0  0  0  0  0  0
   11.9070  -41.2490   15.7270 C   0  0  0  0  0  3  0  0  0  0  0  0
   13.3030  -40.9610   15.6910 C   0  0  0  0  0  0  0  0  0  0  0  0
   14.0730  -40.9660   16.9590 C   0  0  0  0  0  0  0  0  0  0  0  0
   13.4510  -41.2460   18.1760 C   0  0  0  0  0  0  0  0  0  0  0  0
   12.0010  -41.5450   18.2150 C   0  0  0  0  0  3  0  0  0  0  0  0
   15.5510  -40.6750   17.0130 C   0  0  0  0  0  0  0  0  0  0  0  0
   16.2150  -40.7180   18.3290 C   0  0  0  0  0  0  0  0  0  0  0  0
   15.4980  -40.9880   19.4310 C   0  0  0  0  0  0  0  0  0  0  0  0
   14.1800  -41.2480   19.3680 O   0  0  0  0  0  0  0  0  0  0  0  0
   16.2000  -40.4100   16.0140 O   0  0  0  0  0  0  0  0  0  0  0  0
   16.1230  -41.0310   20.8100 C   0  0  0  0  0  0  0  0  0  0  0  0
   16.8370  -42.2680   21.2110 C   0  0  0  0  0  3  0  0  0  0  0  0
   17.4420  -42.3680   22.4770 C   0  0  0  0  0  3  0  0  0  0  0  0
   17.3760  -41.2370   23.4300 C   0  0  0  0  0  0  0  0  0  0  0  0
   16.6890  -40.0450   23.0650 C   0  0  0  0  0  0  0  0  0  0  0  0
   16.0420  -39.9470   21.7330 C   0  0  0  0  0  3  0  0  0  0  0  0
   17.9910  -41.3540   24.6780 O   0  0  0  0  0  0  0  0  0  0  0  0
   18.4400  -42.1450   24.9070 H   0  0  0  0  0  0  0  0  0  0  0  0
   16.6370  -38.9850   23.9760 O   0  0  0  0  0  0  0  0  0  0  0  0
   17.0510  -39.0650   24.8130 H   0  0  0  0  0  0  0  0  0  0  0  0
    9.8690  -41.8280   17.0210 O   0  0  0  0  0  0  0  0  0  0  0  0
    9.3860  -41.8240   16.2180 H   0  0  0  0  0  0  0  0  0  0  0  0
   13.9520  -40.6760   14.4870 O   0  0  0  0  0  0  0  0  0  0  0  0
   13.4690  -40.6720   13.6840 H   0  0  0  0  0  0  0  0  0  0  0  0
   17.5350  -40.5020   18.4210 O   0  0  0  0  0  0  0  0  0  0  0  0
   18.0350  -40.3120   17.6510 H   0  0  0  0  0  0  0  0  0  0  0  0
  1 22  1  0  0  0  0
  1  6  1  0  0  0  0
  2  1  2  0  0  0  0
  3  2  1  0  0  0  0
  3  4  2  0  0  0  0
  4  7  1  0  0  0  0
  4  5  1  0  0  0  0
  5  6  2  0  0  0  0
  5 10  1  0  0  0  0
  7  8  1  0  0  0  0
  8 26  1  0  0  0  0
  8  9  2  0  0  0  0
  9 12  1  0  0  0  0
 10  9  1  0  0  0  0
 11  7  2  0  0  0  0
 12 13  2  0  0  0  0
 12 17  1  0  0  0  0
 13 14  1  0  0  0  0
 14 15  2  0  0  0  0
 15 18  1  0  0  0  0
 16 15  1  0  0  0  0
 16 20  1  0  0  0  0
 17 16  2  0  0  0  0
 18 19  1  0  0  0  0
 20 21  1  0  0  0  0
 23 22  1  0  0  0  0
 24  3  1  0  0  0  0
 25 24  1  0  0  0  0
 27 26  1  0  0  0  0
M  END
>  <minimizedAffinity>
-9.15206909

$$$$

 OpenBabel10112400233D

 27 29  0  0  0  0  0  0  0  0999 V2000
    0.6300  -45.5580   43.7320 C   0  0  0  0  0  0  0  0  0  0  0  0
   -0.7360  -45.7100   43.1790 C   0  0  0  0  0  3  0  0  0  0  0  0
   -1.7700  -44.8050   43.5570 C   0  0  0  0  0  0  0  0  0  0  0  0
   -1.4590  -43.7110   44.5110 C   0  0  0  0  0  0  0  0  0  0  0  0
   -0.1760  -43.5610   45.0370 C   0  0  0  0  0  0  0  0  0  0  0  0
    0.9000  -44.5010   44.6450 C   0  0  0  0  0  3  0  0  0  0  0  0
   -2.4900  -42.7090   44.9630 C   0  0  0  0  0  0  0  0  0  0  0  0
   -2.0640  -41.6580   45.9060 C   0  0  0  0  0  0  0  0  0  0  0  0
   -0.7980  -41.6320   46.3490 C   0  0  0  0  0  0  0  0  0  0  0  0
    0.1130  -42.5310   45.9360 O   0  0  0  0  0  0  0  0  0  0  0  0
   -3.6470  -42.7440   44.5750 O   0  0  0  0  0  0  0  0  0  0  0  0
   -0.3080  -40.5850   47.3290 C   0  0  0  0  0  0  0  0  0  0  0  0
   -0.6950  -40.7330   48.7550 C   0  0  0  0  0  3  0  0  0  0  0  0
   -0.2680  -39.7960   49.7130 C   0  0  0  0  0  3  0  0  0  0  0  0
    0.5760  -38.6470   49.3140 C   0  0  0  0  0  0  0  0  0  0  0  0
    0.9510  -38.4860   47.9510 C   0  0  0  0  0  0  0  0  0  0  0  0
    0.4900  -39.4700   46.9390 C   0  0  0  0  0  3  0  0  0  0  0  0
    0.9970  -37.7340   50.2830 O   0  0  0  0  0  0  0  0  0  0  0  0
    0.7430  -37.8520   51.1780 H   0  0  0  0  0  0  0  0  0  0  0  0
    1.7500  -37.3970   47.5890 O   0  0  0  0  0  0  0  0  0  0  0  0
    2.0320  -36.7860   48.2420 H   0  0  0  0  0  0  0  0  0  0  0  0
    1.6250  -46.4590   43.3450 O   0  0  0  0  0  0  0  0  0  0  0  0
    1.4250  -47.1480   42.7420 H   0  0  0  0  0  0  0  0  0  0  0  0
   -3.0650  -44.9310   43.0470 O   0  0  0  0  0  0  0  0  0  0  0  0
   -3.2650  -45.6200   42.4450 H   0  0  0  0  0  0  0  0  0  0  0  0
   -2.9380  -40.7230   46.3070 O   0  0  0  0  0  0  0  0  0  0  0  0
   -3.8220  -40.7430   45.9970 H   0  0  0  0  0  0  0  0  0  0  0  0
  1  6  1  0  0  0  0
  2  3  1  0  0  0  0
  2  1  2  0  0  0  0
  3  4  2  0  0  0  0
  4  7  1  0  0  0  0
  4  5  1  0  0  0  0
  5 10  1  0  0  0  0
  6  5  2  0  0  0  0
  7  8  1  0  0  0  0
  8 26  1  0  0  0  0
  8  9  2  0  0  0  0
  9 12  1  0  0  0  0
 10  9  1  0  0  0  0
 11  7  2  0  0  0  0
 12 13  1  0  0  0  0
 13 14  2  0  0  0  0
 15 14  1  0  0  0  0
 15 18  1  0  0  0  0
 16 15  2  0  0  0  0
 17 12  2  0  0  0  0
 17 16  1  0  0  0  0
 18 19  1  0  0  0  0
 20 16  1  0  0  0  0
 20 21  1  0  0  0  0
 22  1  1  0  0  0  0
 23 22  1  0  0  0  0
 24  3  1  0  0  0  0
 25 24  1  0  0  0  0
 27 26  1  0  0  0  0
M  END
>  <minimizedAffinity>
-9.09801483

$$$$

 OpenBabel10112400233D

 27 29  0  0  0  0  0  0  0  0999 V2000
    0.6570  -41.3100   46.8740 C   0  0  0  0  0  0  0  0  0  0  0  0
   -0.5340  -40.5790   47.3650 C   0  0  0  0  0  3  0  0  0  0  0  0
   -1.8100  -40.7940   46.7660 C   0  0  0  0  0  0  0  0  0  0  0  0
   -1.9260  -41.7590   45.6440 C   0  0  0  0  0  0  0  0  0  0  0  0
   -0.8090  -42.4510   45.1740 C   0  0  0  0  0  0  0  0  0  0  0  0
    0.5170  -42.2280   45.7960 C   0  0  0  0  0  3  0  0  0  0  0  0
   -3.2330  -42.0490   44.9540 C   0  0  0  0  0  0  0  0  0  0  0  0
   -3.2310  -43.0350   43.8570 C   0  0  0  0  0  0  0  0  0  0  0  0
   -2.0820  -43.6240   43.4900 C   0  0  0  0  0  0  0  0  0  0  0  0
   -0.9220  -43.3580   44.1160 O   0  0  0  0  0  0  0  0  0  0  0  0
   -4.2750  -41.5000   45.2740 O   0  0  0  0  0  0  0  0  0  0  0  0
   -2.0170  -44.6320   42.3620 C   0  0  0  0  0  0  0  0  0  0  0  0
   -2.2430  -44.1440   40.9790 C   0  0  0  0  0  3  0  0  0  0  0  0
   -2.1910  -45.0310   39.8880 C   0  0  0  0  0  3  0  0  0  0  0  0
   -1.9090  -46.4680   40.1040 C   0  0  0  0  0  0  0  0  0  0  0  0
   -1.6970  -46.9550   41.4240 C   0  0  0  0  0  0  0  0  0  0  0  0
   -1.7630  -46.0190   42.5740 C   0  0  0  0  0  3  0  0  0  0  0  0
   -1.8530  -47.3290   39.0060 O   0  0  0  0  0  0  0  0  0  0  0  0
   -1.9950  -46.9950   38.1420 H   0  0  0  0  0  0  0  0  0  0  0  0
   -1.4300  -48.3150   41.6120 O   0  0  0  0  0  0  0  0  0  0  0  0
   -1.3920  -48.8910   40.8730 H   0  0  0  0  0  0  0  0  0  0  0  0
    1.8950  -41.0800   47.4790 O   0  0  0  0  0  0  0  0  0  0  0  0
    1.9640  -40.4700   48.1880 H   0  0  0  0  0  0  0  0  0  0  0  0
   -2.9450  -40.1150   47.2150 O   0  0  0  0  0  0  0  0  0  0  0  0
   -2.8760  -39.5060   47.9230 H   0  0  0  0  0  0  0  0  0  0  0  0
   -4.3780  -43.3530   43.2380 O   0  0  0  0  0  0  0  0  0  0  0  0
   -5.1790  -42.9410   43.4950 H   0  0  0  0  0  0  0  0  0  0  0  0
  1  2  1  0  0  0  0
  1 22  1  0  0  0  0
  3 24  1  0  0  0  0
  3  2  2  0  0  0  0
  4  3  1  0  0  0  0
  5  4  2  0  0  0  0
  5  6  1  0  0  0  0
  6  1  2  0  0  0  0
  7 11  2  0  0  0  0
  7  4  1  0  0  0  0
  8  7  1  0  0  0  0
  9  8  2  0  0  0  0
  9 10  1  0  0  0  0
 10  5  1  0  0  0  0
 12 17  1  0  0  0  0
 12  9  1  0  0  0  0
 13 12  2  0  0  0  0
 14 15  2  0  0  0  0
 14 13  1  0  0  0  0
 15 16  1  0  0  0  0
 16 20  1  0  0  0  0
 16 17  2  0  0  0  0
 18 15  1  0  0  0  0
 19 18  1  0  0  0  0
 21 20  1  0  0  0  0
 22 23  1  0  0  0  0
 24 25  1  0  0  0  0
 26 27  1  0  0  0  0
 26  8  1  0  0  0  0
M  END
>  <minimizedAffinity>
-9.07936573

$$$$

 OpenBabel10112400233D

 27 29  0  0  0  0  0  0  0  0999 V2000
   -2.1490  -36.9120   23.2400 C   0  0  0  0  0  0  0  0  0  0  0  0
   -1.2120  -36.0690   22.4600 C   0  0  0  0  0  3  0  0  0  0  0  0
   -0.0320  -36.6360   21.8960 C   0  0  0  0  0  0  0  0  0  0  0  0
    0.2430  -38.0800   22.1010 C   0  0  0  0  0  0  0  0  0  0  0  0
   -0.6330  -38.8810   22.8350 C   0  0  0  0  0  0  0  0  0  0  0  0
   -1.8590  -38.2930   23.4220 C   0  0  0  0  0  3  0  0  0  0  0  0
    1.4640  -38.7620   21.5410 C   0  0  0  0  0  0  0  0  0  0  0  0
    1.6300  -40.2050   21.7990 C   0  0  0  0  0  0  0  0  0  0  0  0
    0.7180  -40.8600   22.5340 C   0  0  0  0  0  0  0  0  0  0  0  0
   -0.3690  -40.2400   23.0280 O   0  0  0  0  0  0  0  0  0  0  0  0
    2.3040  -38.1630   20.8880 O   0  0  0  0  0  0  0  0  0  0  0  0
    0.8430  -42.3380   22.8450 C   0  0  0  0  0  0  0  0  0  0  0  0
    0.6430  -43.3010   21.7340 C   0  0  0  0  0  3  0  0  0  0  0  0
    0.7490  -44.6860   21.9580 C   0  0  0  0  0  3  0  0  0  0  0  0
    1.0650  -45.2030   23.3090 C   0  0  0  0  0  0  0  0  0  0  0  0
    1.2540  -44.2950   24.3870 C   0  0  0  0  0  0  0  0  0  0  0  0
    1.1290  -42.8340   24.1510 C   0  0  0  0  0  3  0  0  0  0  0  0
    1.1760  -46.5810   23.5070 O   0  0  0  0  0  0  0  0  0  0  0  0
    1.0490  -47.1690   22.7880 H   0  0  0  0  0  0  0  0  0  0  0  0
    1.5530  -44.7990   25.6570 O   0  0  0  0  0  0  0  0  0  0  0  0
    1.6280  -45.7240   25.7880 H   0  0  0  0  0  0  0  0  0  0  0  0
   -3.2980  -36.3310   23.7820 O   0  0  0  0  0  0  0  0  0  0  0  0
   -3.4690  -35.4190   23.6500 H   0  0  0  0  0  0  0  0  0  0  0  0
    0.8630  -35.8590   21.1580 O   0  0  0  0  0  0  0  0  0  0  0  0
    0.6930  -34.9470   21.0260 H   0  0  0  0  0  0  0  0  0  0  0  0
    2.6810  -40.8620   21.2890 O   0  0  0  0  0  0  0  0  0  0  0  0
    3.3180  -40.4020   20.7760 H   0  0  0  0  0  0  0  0  0  0  0  0
  1  6  1  0  0  0  0
  1 22  1  0  0  0  0
  2  1  2  0  0  0  0
  3  4  2  0  0  0  0
  3  2  1  0  0  0  0
  4  5  1  0  0  0  0
  5 10  1  0  0  0  0
  5  6  2  0  0  0  0
  7  8  1  0  0  0  0
  7  4  1  0  0  0  0
  8  9  2  0  0  0  0
  9 12  1  0  0  0  0
  9 10  1  0  0  0  0
 11  7  2  0  0  0  0
 12 17  1  0  0  0  0
 13 14  1  0  0  0  0
 13 12  2  0  0  0  0
 14 15  2  0  0  0  0
 15 18  1  0  0  0  0
 15 16  1  0  0  0  0
 16 20  1  0  0  0  0
 17 16  2  0  0  0  0
 19 18  1  0  0  0  0
 20 21  1  0  0  0  0
 23 22  1  0  0  0  0
 24  3  1  0  0  0  0
 25 24  1  0  0  0  0
 26  8  1  0  0  0  0
 27 26  1  0  0  0  0
M  END
>  <minimizedAffinity>
-8.69819546

$$$$

 OpenBabel10112400233D

 27 29  0  0  0  0  0  0  0  0999 V2000
   15.4620  -43.8320   20.7270 C   0  0  0  0  0  0  0  0  0  0  0  0
   16.5200  -42.8860   21.1510 C   0  0  0  0  0  3  0  0  0  0  0  0
   16.7660  -41.6970   20.4030 C   0  0  0  0  0  0  0  0  0  0  0  0
   15.9470  -41.4220   19.1970 C   0  0  0  0  0  0  0  0  0  0  0  0
   14.9480  -42.3080   18.7900 C   0  0  0  0  0  0  0  0  0  0  0  0
   14.6930  -43.5440   19.5660 C   0  0  0  0  0  3  0  0  0  0  0  0
   16.1370  -40.1920   18.3480 C   0  0  0  0  0  0  0  0  0  0  0  0
   15.2580  -40.0170   17.1770 C   0  0  0  0  0  0  0  0  0  0  0  0
   14.3410  -40.9530   16.8850 C   0  0  0  0  0  0  0  0  0  0  0  0
   14.1800  -42.0470   17.6520 O   0  0  0  0  0  0  0  0  0  0  0  0
   16.9830  -39.3490   18.6020 O   0  0  0  0  0  0  0  0  0  0  0  0
   13.4210  -40.8360   15.6870 C   0  0  0  0  0  0  0  0  0  0  0  0
   13.9800  -41.1480   14.3480 C   0  0  0  0  0  3  0  0  0  0  0  0
   13.1760  -41.0610   13.1970 C   0  0  0  0  0  3  0  0  0  0  0  0
   11.7560  -40.6560   13.3060 C   0  0  0  0  0  0  0  0  0  0  0  0
   11.2050  -40.3460   14.5800 C   0  0  0  0  0  0  0  0  0  0  0  0
   12.0590  -40.4280   15.7920 C   0  0  0  0  0  3  0  0  0  0  0  0
   10.9730  -40.5860   12.1520 O   0  0  0  0  0  0  0  0  0  0  0  0
   11.3470  -40.7930   11.3180 H   0  0  0  0  0  0  0  0  0  0  0  0
    9.8610  -39.9670   14.6660 O   0  0  0  0  0  0  0  0  0  0  0  0
    9.3370  -39.9220   13.8910 H   0  0  0  0  0  0  0  0  0  0  0  0
   15.2420  -44.9890   21.4790 O   0  0  0  0  0  0  0  0  0  0  0  0
   15.7610  -45.1580   22.2400 H   0  0  0  0  0  0  0  0  0  0  0  0
   17.7590  -40.7930   20.7860 O   0  0  0  0  0  0  0  0  0  0  0  0
   18.2780  -40.9630   21.5470 H   0  0  0  0  0  0  0  0  0  0  0  0
   15.3650  -38.9190   16.4150 O   0  0  0  0  0  0  0  0  0  0  0  0
   16.0060  -38.2670   16.6200 H   0  0  0  0  0  0  0  0  0  0  0  0
  1  2  1  0  0  0  0
  1 22  1  0  0  0  0
  3 24  1  0  0  0  0
  3  2  2  0  0  0  0
  4  3  1  0  0  0  0
  5  4  2  0  0  0  0
  5  6  1  0  0  0  0
  6  1  2  0  0  0  0
  7 11  2  0  0  0  0
  7  4  1  0  0  0  0
  8  7  1  0  0  0  0
  9  8  2  0  0  0  0
  9 10  1  0  0  0  0
 10  5  1  0  0  0  0
 12 17  1  0  0  0  0
 12  9  1  0  0  0  0
 13 12  2  0  0  0  0
 14 15  2  0  0  0  0
 14 13  1  0  0  0  0
 15 16  1  0  0  0  0
 16 20  1  0  0  0  0
 16 17  2  0  0  0  0
 18 15  1  0  0  0  0
 19 18  1  0  0  0  0
 21 20  1  0  0  0  0
 22 23  1  0  0  0  0
 24 25  1  0  0  0  0
 26 27  1  0  0  0  0
 26  8  1  0  0  0  0
M  END
>  <minimizedAffinity>
-8.59233952

$$$$

 OpenBabel10112400233D

 27 29  0  0  0  0  0  0  0  0999 V2000
   11.9150  -42.2190   12.2050 C   0  0  0  0  0  0  0  0  0  0  0  0
   10.6200  -42.6460   12.7850 C   0  0  0  0  0  3  0  0  0  0  0  0
   10.3840  -42.5290   14.1860 C   0  0  0  0  0  0  0  0  0  0  0  0
   11.4520  -41.9730   15.0530 C   0  0  0  0  0  0  0  0  0  0  0  0
   12.6750  -41.5690   14.5160 C   0  0  0  0  0  0  0  0  0  0  0  0
   12.9210  -41.6910   13.0610 C   0  0  0  0  0  3  0  0  0  0  0  0
   11.2890  -41.8120   16.5420 C   0  0  0  0  0  0  0  0  0  0  0  0
   12.4140  -41.2380   17.3030 C   0  0  0  0  0  0  0  0  0  0  0  0
   13.5470  -40.9010   16.6670 C   0  0  0  0  0  0  0  0  0  0  0  0
   13.6800  -41.0480   15.3360 O   0  0  0  0  0  0  0  0  0  0  0  0
   10.2660  -42.1360   17.1250 O   0  0  0  0  0  0  0  0  0  0  0  0
   14.7410  -40.3220   17.3980 C   0  0  0  0  0  0  0  0  0  0  0  0
   15.2280  -41.0330   18.6060 C   0  0  0  0  0  3  0  0  0  0  0  0
   16.3350  -40.5470   19.3260 C   0  0  0  0  0  3  0  0  0  0  0  0
   17.0320  -39.3170   18.8870 C   0  0  0  0  0  0  0  0  0  0  0  0
   16.5740  -38.6180   17.7350 C   0  0  0  0  0  0  0  0  0  0  0  0
   15.3990  -39.1270   16.9830 C   0  0  0  0  0  3  0  0  0  0  0  0
   18.1340  -38.8570   19.6110 O   0  0  0  0  0  0  0  0  0  0  0  0
   18.4260  -39.3270   20.3680 H   0  0  0  0  0  0  0  0  0  0  0  0
   17.2440  -37.4590   17.3320 O   0  0  0  0  0  0  0  0  0  0  0  0
   17.9850  -37.1520   17.8190 H   0  0  0  0  0  0  0  0  0  0  0  0
   12.1190  -42.3450   10.8290 O   0  0  0  0  0  0  0  0  0  0  0  0
   11.4420  -42.6960   10.2850 H   0  0  0  0  0  0  0  0  0  0  0  0
    9.1700  -42.9260   14.7520 O   0  0  0  0  0  0  0  0  0  0  0  0
    8.4930  -43.2770   14.2080 H   0  0  0  0  0  0  0  0  0  0  0  0
   12.3000  -41.0420   18.6240 O   0  0  0  0  0  0  0  0  0  0  0  0
   11.5090  -41.2790   19.0680 H   0  0  0  0  0  0  0  0  0  0  0  0
  1  2  2  0  0  0  0
  1  6  1  0  0  0  0
  2  3  1  0  0  0  0
  3 24  1  0  0  0  0
  3  4  2  0  0  0  0
  4  7  1  0  0  0  0
  5  4  1  0  0  0  0
  5 10  1  0  0  0  0
  6  5  2  0  0  0  0
  7 11  2  0  0  0  0
  7  8  1  0  0  0  0
  8 26  1  0  0  0  0
  9  8  2  0  0  0  0
  9 12  1  0  0  0  0
 10  9  1  0  0  0  0
 12 13  1  0  0  0  0
 13 14  2  0  0  0  0
 15 14  1  0  0  0  0
 15 18  1  0  0  0  0
 16 15  2  0  0  0  0
 17 12  2  0  0  0  0
 17 16  1  0  0  0  0
 18 19  1  0  0  0  0
 20 16  1  0  0  0  0
 20 21  1  0  0  0  0
 22  1  1  0  0  0  0
 23 22  1  0  0  0  0
 25 24  1  0  0  0  0
 26 27  1  0  0  0  0
M  END
>  <minimizedAffinity>
-8.58771515

$$$$
